* NGSPICE file created from SUNSAR_SAR9B_CV.ext - technology: sky130B

.subckt SUNSAR_SAR9B_CV SAR_IP SAR_IN SARN SARP DONE D<8> D<7> D<6> D<5> D<4> D<3>
+ D<2> D<1> D<0> EN CK_SAMPLE CK_SAMPLE_BSSW VREF AVDD AVSS
R0 XA0/CP0 XDAC1/XC128b<2>/XRES16/B sky130_fd_pr__res_generic_l1 w=380000u l=300000u
R1 XA0/CP0 XDAC1/XC128b<2>/XRES2/B sky130_fd_pr__res_generic_l1 w=380000u l=300000u
R2 XA0/CP0 XDAC1/XC128b<2>/XRES1A/B sky130_fd_pr__res_generic_l1 w=380000u l=300000u
R3 XA0/CP0 XDAC1/XC128b<2>/XRES1B/B sky130_fd_pr__res_generic_l1 w=380000u l=300000u
R4 XA0/CP0 XDAC1/XC128b<2>/XRES4/B sky130_fd_pr__res_generic_l1 w=380000u l=300000u
R5 XA0/CP0 XDAC1/XC128b<2>/XRES8/B sky130_fd_pr__res_generic_l1 w=380000u l=300000u
R6 XA2/CP0 XDAC1/X16ab/XRES16/B sky130_fd_pr__res_generic_l1 w=380000u l=300000u
R7 D<5> XDAC1/X16ab/XRES2/B sky130_fd_pr__res_generic_l1 w=380000u l=300000u
R8 D<5> XDAC1/X16ab/XRES1A/B sky130_fd_pr__res_generic_l1 w=380000u l=300000u
R9 D<5> XDAC1/X16ab/XRES1B/B sky130_fd_pr__res_generic_l1 w=380000u l=300000u
R10 D<5> XDAC1/X16ab/XRES4/B sky130_fd_pr__res_generic_l1 w=380000u l=300000u
R11 XA3/CP0 XDAC1/X16ab/XRES8/B sky130_fd_pr__res_generic_l1 w=380000u l=300000u
R12 XA1/CP0 XDAC1/XC64a<0>/XRES16/B sky130_fd_pr__res_generic_l1 w=380000u l=300000u
R13 XA1/CP0 XDAC1/XC64a<0>/XRES2/B sky130_fd_pr__res_generic_l1 w=380000u l=300000u
R14 XA1/CP0 XDAC1/XC64a<0>/XRES1A/B sky130_fd_pr__res_generic_l1 w=380000u l=300000u
R15 XA1/CP0 XDAC1/XC64a<0>/XRES1B/B sky130_fd_pr__res_generic_l1 w=380000u l=300000u
R16 XA1/CP0 XDAC1/XC64a<0>/XRES4/B sky130_fd_pr__res_generic_l1 w=380000u l=300000u
R17 XA1/CP0 XDAC1/XC64a<0>/XRES8/B sky130_fd_pr__res_generic_l1 w=380000u l=300000u
R18 XA0/CP1 XDAC1/XC0/XRES16/B sky130_fd_pr__res_generic_l1 w=380000u l=300000u
R19 XA0/CP1 XDAC1/XC0/XRES2/B sky130_fd_pr__res_generic_l1 w=380000u l=300000u
R20 XA0/CP1 XDAC1/XC0/XRES1A/B sky130_fd_pr__res_generic_l1 w=380000u l=300000u
R21 XA0/CP1 XDAC1/XC0/XRES1B/B sky130_fd_pr__res_generic_l1 w=380000u l=300000u
R22 XA0/CP1 XDAC1/XC0/XRES4/B sky130_fd_pr__res_generic_l1 w=380000u l=300000u
R23 XA0/CP1 XDAC1/XC0/XRES8/B sky130_fd_pr__res_generic_l1 w=380000u l=300000u
R24 XA0/CP0 XDAC1/XC1/XRES16/B sky130_fd_pr__res_generic_l1 w=380000u l=300000u
R25 XA0/CP0 XDAC1/XC1/XRES2/B sky130_fd_pr__res_generic_l1 w=380000u l=300000u
R26 XA0/CP0 XDAC1/XC1/XRES1A/B sky130_fd_pr__res_generic_l1 w=380000u l=300000u
R27 XA0/CP0 XDAC1/XC1/XRES1B/B sky130_fd_pr__res_generic_l1 w=380000u l=300000u
R28 XA0/CP0 XDAC1/XC1/XRES4/B sky130_fd_pr__res_generic_l1 w=380000u l=300000u
R29 XA0/CP0 XDAC1/XC1/XRES8/B sky130_fd_pr__res_generic_l1 w=380000u l=300000u
R30 D<7> XDAC1/XC64b<1>/XRES16/B sky130_fd_pr__res_generic_l1 w=380000u l=300000u
R31 D<7> XDAC1/XC64b<1>/XRES2/B sky130_fd_pr__res_generic_l1 w=380000u l=300000u
R32 D<7> XDAC1/XC64b<1>/XRES1A/B sky130_fd_pr__res_generic_l1 w=380000u l=300000u
R33 D<7> XDAC1/XC64b<1>/XRES1B/B sky130_fd_pr__res_generic_l1 w=380000u l=300000u
R34 D<7> XDAC1/XC64b<1>/XRES4/B sky130_fd_pr__res_generic_l1 w=380000u l=300000u
R35 D<7> XDAC1/XC64b<1>/XRES8/B sky130_fd_pr__res_generic_l1 w=380000u l=300000u
R36 XA0/CP1 XDAC1/XC128a<1>/XRES16/B sky130_fd_pr__res_generic_l1 w=380000u l=300000u
R37 XA0/CP1 XDAC1/XC128a<1>/XRES2/B sky130_fd_pr__res_generic_l1 w=380000u l=300000u
R38 XA0/CP1 XDAC1/XC128a<1>/XRES1A/B sky130_fd_pr__res_generic_l1 w=380000u l=300000u
R39 XA0/CP1 XDAC1/XC128a<1>/XRES1B/B sky130_fd_pr__res_generic_l1 w=380000u l=300000u
R40 XA0/CP1 XDAC1/XC128a<1>/XRES4/B sky130_fd_pr__res_generic_l1 w=380000u l=300000u
R41 XA0/CP1 XDAC1/XC128a<1>/XRES8/B sky130_fd_pr__res_generic_l1 w=380000u l=300000u
R42 D<6> XDAC1/XC32a<0>/XRES16/B sky130_fd_pr__res_generic_l1 w=380000u l=300000u
R43 D<2> XDAC1/XC32a<0>/XRES2/B sky130_fd_pr__res_generic_l1 w=380000u l=300000u
R44 XDAC1/XC32a<0>/C1A AVSS sky130_fd_pr__res_generic_l1 w=380000u l=300000u
R45 D<1> XDAC1/XC32a<0>/XRES1B/B sky130_fd_pr__res_generic_l1 w=380000u l=300000u
R46 D<3> XDAC1/XC32a<0>/XRES4/B sky130_fd_pr__res_generic_l1 w=380000u l=300000u
R47 D<4> XDAC1/XC32a<0>/XRES8/B sky130_fd_pr__res_generic_l1 w=380000u l=300000u
R48 XA0/CN0 XDAC2/XC128b<2>/XRES16/B sky130_fd_pr__res_generic_l1 w=380000u l=300000u
R49 XA0/CN0 XDAC2/XC128b<2>/XRES2/B sky130_fd_pr__res_generic_l1 w=380000u l=300000u
R50 XA0/CN0 XDAC2/XC128b<2>/XRES1A/B sky130_fd_pr__res_generic_l1 w=380000u l=300000u
R51 XA0/CN0 XDAC2/XC128b<2>/XRES1B/B sky130_fd_pr__res_generic_l1 w=380000u l=300000u
R52 XA0/CN0 XDAC2/XC128b<2>/XRES4/B sky130_fd_pr__res_generic_l1 w=380000u l=300000u
R53 XA0/CN0 XDAC2/XC128b<2>/XRES8/B sky130_fd_pr__res_generic_l1 w=380000u l=300000u
R54 XA2/CN0 XDAC2/X16ab/XRES16/B sky130_fd_pr__res_generic_l1 w=380000u l=300000u
R55 XA3/CN1 XDAC2/X16ab/XRES2/B sky130_fd_pr__res_generic_l1 w=380000u l=300000u
R56 XA3/CN1 XDAC2/X16ab/XRES1A/B sky130_fd_pr__res_generic_l1 w=380000u l=300000u
R57 XA3/CN1 XDAC2/X16ab/XRES1B/B sky130_fd_pr__res_generic_l1 w=380000u l=300000u
R58 XA3/CN1 XDAC2/X16ab/XRES4/B sky130_fd_pr__res_generic_l1 w=380000u l=300000u
R59 XA3/CN0 XDAC2/X16ab/XRES8/B sky130_fd_pr__res_generic_l1 w=380000u l=300000u
R60 XA1/CN0 XDAC2/XC64a<0>/XRES16/B sky130_fd_pr__res_generic_l1 w=380000u l=300000u
R61 XA1/CN0 XDAC2/XC64a<0>/XRES2/B sky130_fd_pr__res_generic_l1 w=380000u l=300000u
R62 XA1/CN0 XDAC2/XC64a<0>/XRES1A/B sky130_fd_pr__res_generic_l1 w=380000u l=300000u
R63 XA1/CN0 XDAC2/XC64a<0>/XRES1B/B sky130_fd_pr__res_generic_l1 w=380000u l=300000u
R64 XA1/CN0 XDAC2/XC64a<0>/XRES4/B sky130_fd_pr__res_generic_l1 w=380000u l=300000u
R65 XA1/CN0 XDAC2/XC64a<0>/XRES8/B sky130_fd_pr__res_generic_l1 w=380000u l=300000u
R66 D<8> XDAC2/XC0/XRES16/B sky130_fd_pr__res_generic_l1 w=380000u l=300000u
R67 D<8> XDAC2/XC0/XRES2/B sky130_fd_pr__res_generic_l1 w=380000u l=300000u
R68 D<8> XDAC2/XC0/XRES1A/B sky130_fd_pr__res_generic_l1 w=380000u l=300000u
R69 D<8> XDAC2/XC0/XRES1B/B sky130_fd_pr__res_generic_l1 w=380000u l=300000u
R70 D<8> XDAC2/XC0/XRES4/B sky130_fd_pr__res_generic_l1 w=380000u l=300000u
R71 D<8> XDAC2/XC0/XRES8/B sky130_fd_pr__res_generic_l1 w=380000u l=300000u
R72 XA0/CN0 XDAC2/XC1/XRES16/B sky130_fd_pr__res_generic_l1 w=380000u l=300000u
R73 XA0/CN0 XDAC2/XC1/XRES2/B sky130_fd_pr__res_generic_l1 w=380000u l=300000u
R74 XA0/CN0 XDAC2/XC1/XRES1A/B sky130_fd_pr__res_generic_l1 w=380000u l=300000u
R75 XA0/CN0 XDAC2/XC1/XRES1B/B sky130_fd_pr__res_generic_l1 w=380000u l=300000u
R76 XA0/CN0 XDAC2/XC1/XRES4/B sky130_fd_pr__res_generic_l1 w=380000u l=300000u
R77 XA0/CN0 XDAC2/XC1/XRES8/B sky130_fd_pr__res_generic_l1 w=380000u l=300000u
R78 XA1/CN1 XDAC2/XC64b<1>/XRES16/B sky130_fd_pr__res_generic_l1 w=380000u l=300000u
R79 XA1/CN1 XDAC2/XC64b<1>/XRES2/B sky130_fd_pr__res_generic_l1 w=380000u l=300000u
R80 XA1/CN1 XDAC2/XC64b<1>/XRES1A/B sky130_fd_pr__res_generic_l1 w=380000u l=300000u
R81 XA1/CN1 XDAC2/XC64b<1>/XRES1B/B sky130_fd_pr__res_generic_l1 w=380000u l=300000u
R82 XA1/CN1 XDAC2/XC64b<1>/XRES4/B sky130_fd_pr__res_generic_l1 w=380000u l=300000u
R83 XA1/CN1 XDAC2/XC64b<1>/XRES8/B sky130_fd_pr__res_generic_l1 w=380000u l=300000u
R84 D<8> XDAC2/XC128a<1>/XRES16/B sky130_fd_pr__res_generic_l1 w=380000u l=300000u
R85 D<8> XDAC2/XC128a<1>/XRES2/B sky130_fd_pr__res_generic_l1 w=380000u l=300000u
R86 D<8> XDAC2/XC128a<1>/XRES1A/B sky130_fd_pr__res_generic_l1 w=380000u l=300000u
R87 D<8> XDAC2/XC128a<1>/XRES1B/B sky130_fd_pr__res_generic_l1 w=380000u l=300000u
R88 D<8> XDAC2/XC128a<1>/XRES4/B sky130_fd_pr__res_generic_l1 w=380000u l=300000u
R89 D<8> XDAC2/XC128a<1>/XRES8/B sky130_fd_pr__res_generic_l1 w=380000u l=300000u
R90 XA2/CN1 XDAC2/XC32a<0>/XRES16/B sky130_fd_pr__res_generic_l1 w=380000u l=300000u
R91 XA6/CN0 XDAC2/XC32a<0>/XRES2/B sky130_fd_pr__res_generic_l1 w=380000u l=300000u
R92 XDAC2/XC32a<0>/C1A AVSS sky130_fd_pr__res_generic_l1 w=380000u l=300000u
R93 XA7/CN0 XDAC2/XC32a<0>/XRES1B/B sky130_fd_pr__res_generic_l1 w=380000u l=300000u
R94 XA5/CN0 XDAC2/XC32a<0>/XRES4/B sky130_fd_pr__res_generic_l1 w=380000u l=300000u
R95 XA4/CN0 XDAC2/XC32a<0>/XRES8/B sky130_fd_pr__res_generic_l1 w=380000u l=300000u
X0 XA20/XA9/A XA20/XA11/Y AVDD AVDD sky130_fd_pr__pfet_01v8 ad=0p pd=0u as=1.49591e+14p ps=8.019e+08u w=1.08e+06u l=180000u
X1 AVDD XA20/XA12/Y XA20/XA9/A AVDD sky130_fd_pr__pfet_01v8 ad=0p pd=0u as=0p ps=0u w=1.08e+06u l=180000u
X2 XA20/XA10/MN1/S XA20/XA11/Y AVSS AVSS sky130_fd_pr__nfet_01v8 ad=0p pd=0u as=2.27156e+14p ps=1.2177e+09u w=1.08e+06u l=180000u
X3 XA20/XA9/A XA20/XA12/Y XA20/XA10/MN1/S AVSS sky130_fd_pr__nfet_01v8 ad=0p pd=0u as=0p ps=0u w=1.08e+06u l=180000u
X4 XA20/XA11/MP1/S CK_SAMPLE AVDD AVDD sky130_fd_pr__pfet_01v8 ad=0p pd=0u as=0p ps=0u w=1.08e+06u l=180000u
X5 XA20/XA11/Y DONE XA20/XA11/MP1/S AVDD sky130_fd_pr__pfet_01v8 ad=0p pd=0u as=0p ps=0u w=1.08e+06u l=180000u
X6 XA20/XA11/Y CK_SAMPLE AVSS AVSS sky130_fd_pr__nfet_01v8 ad=0p pd=0u as=0p ps=0u w=1.08e+06u l=180000u
X7 AVSS DONE XA20/XA11/Y AVSS sky130_fd_pr__nfet_01v8 ad=0p pd=0u as=0p ps=0u w=1.08e+06u l=180000u
X8 XA20/XA12/Y XA8/CEO AVDD AVDD sky130_fd_pr__pfet_01v8 ad=0p pd=0u as=0p ps=0u w=1.08e+06u l=180000u
X9 XA20/XA12/Y XA8/CEO AVSS AVSS sky130_fd_pr__nfet_01v8 ad=0p pd=0u as=0p ps=0u w=1.08e+06u l=180000u
X10 AVDD AVDD AVDD AVDD sky130_fd_pr__pfet_01v8 ad=0p pd=0u as=0p ps=0u w=1.08e+06u l=180000u
X11 AVSS AVSS AVSS AVSS sky130_fd_pr__nfet_01v8 ad=0p pd=0u as=0p ps=0u w=1.08e+06u l=180000u
X12 AVDD AVDD AVDD AVDD sky130_fd_pr__pfet_01v8 ad=0p pd=0u as=0p ps=0u w=1.08e+06u l=180000u
X13 AVSS AVSS AVSS AVSS sky130_fd_pr__nfet_01v8 ad=0p pd=0u as=0p ps=0u w=1.08e+06u l=180000u
X14 AVDD AVDD AVDD AVDD sky130_fd_pr__pfet_01v8 ad=0p pd=0u as=0p ps=0u w=1.08e+06u l=180000u
X15 AVDD AVDD AVDD AVDD sky130_fd_pr__pfet_01v8 ad=0p pd=0u as=0p ps=0u w=1.08e+06u l=180000u
X16 AVDD XA20/XA9/A XA20/XA1/MP0/S AVDD sky130_fd_pr__pfet_01v8 ad=0p pd=0u as=0p ps=0u w=1.08e+06u l=180000u
X17 XA20/XA1/MP0/S XA20/XA9/A AVSS AVSS sky130_fd_pr__nfet_01v8 ad=0p pd=0u as=0p ps=0u w=1.08e+06u l=180000u
X18 XA20/XA1/MP0/S SARP XA20/XA1/MP0/S AVSS sky130_fd_pr__nfet_01v8 ad=0p pd=0u as=0p ps=0u w=1.08e+06u l=180000u
X19 XA20/XA1/MP0/S SARP XA20/XA1/MP0/S AVSS sky130_fd_pr__nfet_01v8 ad=0p pd=0u as=0p ps=0u w=1.08e+06u l=180000u
X20 XA20/XA1/MP0/S SARP XA20/XA1/MP0/S AVSS sky130_fd_pr__nfet_01v8 ad=0p pd=0u as=0p ps=0u w=1.08e+06u l=180000u
X21 XA20/XA1/MP0/S SARP XA20/XA1/MP0/S AVSS sky130_fd_pr__nfet_01v8 ad=0p pd=0u as=0p ps=0u w=1.08e+06u l=180000u
X22 AVDD XA20/XA9/Y XA20/XA1/MP0/S AVSS sky130_fd_pr__nfet_01v8 ad=7.50668e+14p pd=1.4145e+09u as=0p ps=0u w=1.08e+06u l=180000u
X23 XA20/XA1/MP0/S SARP XA20/XA1/MP0/S AVSS sky130_fd_pr__nfet_01v8 ad=0p pd=0u as=0p ps=0u w=1.08e+06u l=180000u
X24 AVDD AVDD AVDD AVDD sky130_fd_pr__pfet_01v8 ad=0p pd=0u as=0p ps=0u w=1.08e+06u l=180000u
X25 AVDD AVDD AVDD AVDD sky130_fd_pr__pfet_01v8 ad=0p pd=0u as=0p ps=0u w=1.08e+06u l=180000u
X26 AVDD AVDD AVDD AVDD sky130_fd_pr__pfet_01v8 ad=0p pd=0u as=0p ps=0u w=1.08e+06u l=180000u
X27 AVDD AVDD AVDD AVDD sky130_fd_pr__pfet_01v8 ad=0p pd=0u as=0p ps=0u w=1.08e+06u l=180000u
X28 AVDD XA20/XA9/Y XA20/XA3/N1 AVDD sky130_fd_pr__pfet_01v8 ad=0p pd=0u as=0p ps=0u w=1.08e+06u l=180000u
X29 XA20/XA2/N2 XA20/XA9/Y AVDD AVDD sky130_fd_pr__pfet_01v8 ad=0p pd=0u as=0p ps=0u w=1.08e+06u l=180000u
X30 AVDD AVDD XA20/XA2/N2 AVDD sky130_fd_pr__pfet_01v8 ad=0p pd=0u as=0p ps=0u w=1.08e+06u l=180000u
X31 XA20/XA3/N1 XA20/XA9/Y AVSS AVSS sky130_fd_pr__nfet_01v8 ad=0p pd=0u as=0p ps=0u w=1.08e+06u l=180000u
X32 XA20/XA3a/A XA20/XA9/Y AVDD AVDD sky130_fd_pr__pfet_01v8 ad=0p pd=0u as=0p ps=0u w=1.08e+06u l=180000u
X33 XA20/XA2/N2 SARP XA20/XA3/N1 AVSS sky130_fd_pr__nfet_01v8 ad=0p pd=0u as=0p ps=0u w=1.08e+06u l=180000u
X34 AVDD XA20/XA3/CO XA20/XA3a/A AVDD sky130_fd_pr__pfet_01v8 ad=0p pd=0u as=0p ps=0u w=1.08e+06u l=180000u
X35 XA20/XA3/N1 SARP XA20/XA2/N2 AVSS sky130_fd_pr__nfet_01v8 ad=0p pd=0u as=0p ps=0u w=1.08e+06u l=180000u
X36 XA20/XA3a/A XA20/XA3/CO AVDD AVDD sky130_fd_pr__pfet_01v8 ad=0p pd=0u as=0p ps=0u w=1.08e+06u l=180000u
X37 XA20/XA2/N2 SARP XA20/XA3/N1 AVSS sky130_fd_pr__nfet_01v8 ad=0p pd=0u as=0p ps=0u w=1.08e+06u l=180000u
X38 AVDD XA20/XA3/CO XA20/XA3a/A AVDD sky130_fd_pr__pfet_01v8 ad=0p pd=0u as=0p ps=0u w=1.08e+06u l=180000u
X39 XA20/XA3/N1 SARP XA20/XA2/N2 AVSS sky130_fd_pr__nfet_01v8 ad=0p pd=0u as=0p ps=0u w=1.08e+06u l=180000u
X40 XA20/XA3a/A XA20/XA3/CO XA20/XA2/N2 AVSS sky130_fd_pr__nfet_01v8 ad=0p pd=0u as=0p ps=0u w=1.08e+06u l=180000u
X41 XA20/XA2/N2 SARP XA20/XA3/N1 AVSS sky130_fd_pr__nfet_01v8 ad=0p pd=0u as=0p ps=0u w=1.08e+06u l=180000u
X42 AVDD XA20/XA9/Y XA20/XA3/N1 AVDD sky130_fd_pr__pfet_01v8 ad=0p pd=0u as=0p ps=0u w=1.08e+06u l=180000u
X43 XA20/XA3/N2 XA20/XA9/Y AVDD AVDD sky130_fd_pr__pfet_01v8 ad=0p pd=0u as=0p ps=0u w=1.08e+06u l=180000u
X44 AVDD AVDD XA20/XA3/N2 AVDD sky130_fd_pr__pfet_01v8 ad=0p pd=0u as=0p ps=0u w=1.08e+06u l=180000u
X45 XA20/XA3/N1 XA20/XA9/Y AVSS AVSS sky130_fd_pr__nfet_01v8 ad=0p pd=0u as=0p ps=0u w=1.08e+06u l=180000u
X46 XA20/XA3/CO XA20/XA9/Y AVDD AVDD sky130_fd_pr__pfet_01v8 ad=0p pd=0u as=0p ps=0u w=1.08e+06u l=180000u
X47 XA20/XA3/N2 SARN XA20/XA3/N1 AVSS sky130_fd_pr__nfet_01v8 ad=0p pd=0u as=0p ps=0u w=1.08e+06u l=180000u
X48 AVDD XA20/XA3a/A XA20/XA3/CO AVDD sky130_fd_pr__pfet_01v8 ad=0p pd=0u as=0p ps=0u w=1.08e+06u l=180000u
X49 XA20/XA3/N1 SARN XA20/XA3/N2 AVSS sky130_fd_pr__nfet_01v8 ad=0p pd=0u as=0p ps=0u w=1.08e+06u l=180000u
X50 XA20/XA3/CO XA20/XA3a/A AVDD AVDD sky130_fd_pr__pfet_01v8 ad=0p pd=0u as=0p ps=0u w=1.08e+06u l=180000u
X51 XA20/XA3/N2 SARN XA20/XA3/N1 AVSS sky130_fd_pr__nfet_01v8 ad=0p pd=0u as=0p ps=0u w=1.08e+06u l=180000u
X52 AVDD XA20/XA3a/A XA20/XA3/CO AVDD sky130_fd_pr__pfet_01v8 ad=0p pd=0u as=0p ps=0u w=1.08e+06u l=180000u
X53 XA20/XA3/N1 SARN XA20/XA3/N2 AVSS sky130_fd_pr__nfet_01v8 ad=0p pd=0u as=0p ps=0u w=1.08e+06u l=180000u
X54 XA20/XA3/CO XA20/XA3a/A XA20/XA3/N2 AVSS sky130_fd_pr__nfet_01v8 ad=0p pd=0u as=0p ps=0u w=1.08e+06u l=180000u
X55 XA20/XA3/N2 SARN XA20/XA3/N1 AVSS sky130_fd_pr__nfet_01v8 ad=0p pd=0u as=0p ps=0u w=1.08e+06u l=180000u
X56 AVDD AVDD AVDD AVDD sky130_fd_pr__pfet_01v8 ad=0p pd=0u as=0p ps=0u w=1.08e+06u l=180000u
X57 AVDD AVDD AVDD AVDD sky130_fd_pr__pfet_01v8 ad=0p pd=0u as=0p ps=0u w=1.08e+06u l=180000u
X58 AVDD XA20/XA9/A XA20/XA4/MP0/S AVDD sky130_fd_pr__pfet_01v8 ad=0p pd=0u as=0p ps=0u w=1.08e+06u l=180000u
X59 XA20/XA4/MP0/S XA20/XA9/A AVSS AVSS sky130_fd_pr__nfet_01v8 ad=0p pd=0u as=0p ps=0u w=1.08e+06u l=180000u
X60 XA20/XA4/MP0/S SARN XA20/XA4/MP0/S AVSS sky130_fd_pr__nfet_01v8 ad=0p pd=0u as=0p ps=0u w=1.08e+06u l=180000u
X61 XA20/XA4/MP0/S SARN XA20/XA4/MP0/S AVSS sky130_fd_pr__nfet_01v8 ad=0p pd=0u as=0p ps=0u w=1.08e+06u l=180000u
X62 XA20/XA4/MP0/S SARN XA20/XA4/MP0/S AVSS sky130_fd_pr__nfet_01v8 ad=0p pd=0u as=0p ps=0u w=1.08e+06u l=180000u
X63 XA20/XA4/MP0/S SARN XA20/XA4/MP0/S AVSS sky130_fd_pr__nfet_01v8 ad=0p pd=0u as=0p ps=0u w=1.08e+06u l=180000u
X64 AVDD XA20/XA9/Y XA20/XA4/MP0/S AVSS sky130_fd_pr__nfet_01v8 ad=0p pd=0u as=0p ps=0u w=1.08e+06u l=180000u
X65 XA20/XA4/MP0/S SARN XA20/XA4/MP0/S AVSS sky130_fd_pr__nfet_01v8 ad=0p pd=0u as=0p ps=0u w=1.08e+06u l=180000u
X66 AVDD AVDD AVDD AVDD sky130_fd_pr__pfet_01v8 ad=0p pd=0u as=0p ps=0u w=1.08e+06u l=180000u
X67 AVDD AVDD AVDD AVDD sky130_fd_pr__pfet_01v8 ad=0p pd=0u as=0p ps=0u w=1.08e+06u l=180000u
X68 AVDD AVDD AVDD AVDD sky130_fd_pr__pfet_01v8 ad=0p pd=0u as=0p ps=0u w=1.08e+06u l=180000u
X69 AVDD AVDD AVDD AVDD sky130_fd_pr__pfet_01v8 ad=0p pd=0u as=0p ps=0u w=1.08e+06u l=180000u
X70 XA20/CNO XA20/XA3a/A AVDD AVDD sky130_fd_pr__pfet_01v8 ad=0p pd=0u as=0p ps=0u w=1.08e+06u l=180000u
X71 AVDD XA20/XA3a/A XA20/CNO AVDD sky130_fd_pr__pfet_01v8 ad=0p pd=0u as=0p ps=0u w=1.08e+06u l=180000u
X72 XA20/CNO XA20/XA3a/A AVDD AVDD sky130_fd_pr__pfet_01v8 ad=0p pd=0u as=0p ps=0u w=1.08e+06u l=180000u
X73 XA20/CNO XA20/XA3a/A AVSS AVSS sky130_fd_pr__nfet_01v8 ad=0p pd=0u as=0p ps=0u w=1.08e+06u l=180000u
X74 AVDD XA20/XA3a/A XA20/CNO AVDD sky130_fd_pr__pfet_01v8 ad=0p pd=0u as=0p ps=0u w=1.08e+06u l=180000u
X75 AVSS XA20/XA3a/A XA20/CNO AVSS sky130_fd_pr__nfet_01v8 ad=0p pd=0u as=0p ps=0u w=1.08e+06u l=180000u
X76 XA20/CNO XA20/XA3a/A AVSS AVSS sky130_fd_pr__nfet_01v8 ad=0p pd=0u as=0p ps=0u w=1.08e+06u l=180000u
X77 AVSS XA20/XA3a/A XA20/CNO AVSS sky130_fd_pr__nfet_01v8 ad=0p pd=0u as=0p ps=0u w=1.08e+06u l=180000u
X78 XA20/CPO XA20/XA3/CO AVDD AVDD sky130_fd_pr__pfet_01v8 ad=0p pd=0u as=0p ps=0u w=1.08e+06u l=180000u
X79 AVDD XA20/XA3/CO XA20/CPO AVDD sky130_fd_pr__pfet_01v8 ad=0p pd=0u as=0p ps=0u w=1.08e+06u l=180000u
X80 XA20/CPO XA20/XA3/CO AVDD AVDD sky130_fd_pr__pfet_01v8 ad=0p pd=0u as=0p ps=0u w=1.08e+06u l=180000u
X81 XA20/CPO XA20/XA3/CO AVSS AVSS sky130_fd_pr__nfet_01v8 ad=0p pd=0u as=0p ps=0u w=1.08e+06u l=180000u
X82 AVDD XA20/XA3/CO XA20/CPO AVDD sky130_fd_pr__pfet_01v8 ad=0p pd=0u as=0p ps=0u w=1.08e+06u l=180000u
X83 AVSS XA20/XA3/CO XA20/CPO AVSS sky130_fd_pr__nfet_01v8 ad=0p pd=0u as=0p ps=0u w=1.08e+06u l=180000u
X84 XA20/CPO XA20/XA3/CO AVSS AVSS sky130_fd_pr__nfet_01v8 ad=0p pd=0u as=0p ps=0u w=1.08e+06u l=180000u
X85 AVSS XA20/XA3/CO XA20/CPO AVSS sky130_fd_pr__nfet_01v8 ad=0p pd=0u as=0p ps=0u w=1.08e+06u l=180000u
X86 XA20/XA9/Y XA20/XA9/A AVDD AVDD sky130_fd_pr__pfet_01v8 ad=0p pd=0u as=0p ps=0u w=1.08e+06u l=180000u
X87 XA20/XA9/Y XA20/XA9/A AVSS AVSS sky130_fd_pr__nfet_01v8 ad=0p pd=0u as=0p ps=0u w=1.08e+06u l=180000u
X88 SARP XB1/M4/G SAR_IP AVSS sky130_fd_pr__nfet_01v8 ad=4.9248e+12p pd=2.64e+07u as=5.5404e+12p ps=2.97e+07u w=1.08e+06u l=180000u
X89 SARP XB1/M4/G SAR_IP AVSS sky130_fd_pr__nfet_01v8 ad=0p pd=0u as=0p ps=0u w=1.08e+06u l=180000u
X90 SARP XB1/M4/G SAR_IP AVSS sky130_fd_pr__nfet_01v8 ad=0p pd=0u as=0p ps=0u w=1.08e+06u l=180000u
X91 SARP XB1/M4/G SAR_IP AVSS sky130_fd_pr__nfet_01v8 ad=0p pd=0u as=0p ps=0u w=1.08e+06u l=180000u
X92 SARN XA0/CEIN SAR_IP AVSS sky130_fd_pr__nfet_01v8 ad=4.9248e+12p pd=2.64e+07u as=0p ps=0u w=1.08e+06u l=180000u
R96 XB1/XA4/GNG XB1/XCAPB1/XCAPB0/m3_9828_132# sky130_fd_pr__res_generic_m3 w=440000u l=360000u
R97 XB1/XCAPB1/XCAPB0/m3_252_308# XB1/XA3/B sky130_fd_pr__res_generic_m3 w=440000u l=360000u
R98 XB1/XA4/GNG XB1/XCAPB1/XCAPB1/m3_9828_132# sky130_fd_pr__res_generic_m3 w=440000u l=360000u
R99 XB1/XCAPB1/XCAPB1/m3_252_308# XB1/XA3/B sky130_fd_pr__res_generic_m3 w=440000u l=360000u
R100 XB1/XA4/GNG XB1/XCAPB1/XCAPB2/m3_9828_132# sky130_fd_pr__res_generic_m3 w=440000u l=360000u
R101 XB1/XCAPB1/XCAPB2/m3_252_308# XB1/XA3/B sky130_fd_pr__res_generic_m3 w=440000u l=360000u
R102 XB1/XA4/GNG XB1/XCAPB1/XCAPB3/m3_9828_132# sky130_fd_pr__res_generic_m3 w=440000u l=360000u
R103 XB1/XCAPB1/XCAPB3/m3_252_308# XB1/XA3/B sky130_fd_pr__res_generic_m3 w=440000u l=360000u
R104 XB1/XA4/GNG XB1/XCAPB1/XCAPB4/m3_9828_132# sky130_fd_pr__res_generic_m3 w=440000u l=360000u
R105 XB1/XCAPB1/XCAPB4/m3_252_308# XB1/XA3/B sky130_fd_pr__res_generic_m3 w=440000u l=360000u
X93 SARN XA0/CEIN SAR_IP AVSS sky130_fd_pr__nfet_01v8 ad=0p pd=0u as=0p ps=0u w=1.08e+06u l=180000u
X94 SARN XA0/CEIN SAR_IP AVSS sky130_fd_pr__nfet_01v8 ad=0p pd=0u as=0p ps=0u w=1.08e+06u l=180000u
X95 SARN XA0/CEIN SAR_IP AVSS sky130_fd_pr__nfet_01v8 ad=0p pd=0u as=0p ps=0u w=1.08e+06u l=180000u
X96 XB1/CKN CK_SAMPLE_BSSW AVDD AVDD sky130_fd_pr__pfet_01v8 ad=0p pd=0u as=0p ps=0u w=1.08e+06u l=180000u
X97 XB1/CKN CK_SAMPLE_BSSW AVSS AVSS sky130_fd_pr__nfet_01v8 ad=0p pd=0u as=0p ps=0u w=1.08e+06u l=180000u
X98 XB1/XA1/Y XB1/XA1/MP0/G AVDD AVDD sky130_fd_pr__pfet_01v8 ad=0p pd=0u as=0p ps=0u w=1.08e+06u l=180000u
X99 XB1/XA1/MP0/G XB1/XA1/MP0/G AVSS AVSS sky130_fd_pr__nfet_01v8 ad=0p pd=0u as=0p ps=0u w=1.08e+06u l=180000u
X100 XB1/XA2/MP0/G XB1/XA2/MP0/G AVDD AVDD sky130_fd_pr__pfet_01v8 ad=0p pd=0u as=0p ps=0u w=1.08e+06u l=180000u
X101 XA0/CEIN XB1/XA2/MP0/G AVSS AVSS sky130_fd_pr__nfet_01v8 ad=0p pd=0u as=0p ps=0u w=1.08e+06u l=180000u
X102 XB1/XA3/B AVDD AVDD AVDD sky130_fd_pr__pfet_01v8 ad=0p pd=0u as=0p ps=0u w=1.08e+06u l=180000u
X103 AVDD XB1/CKN XB1/XA3/MP0/S AVDD sky130_fd_pr__pfet_01v8 ad=0p pd=0u as=0p ps=0u w=1.08e+06u l=180000u
X104 SAR_IP XB1/CKN XB1/XA3/B AVDD sky130_fd_pr__pfet_01v8 ad=6.156e+11p pd=3.3e+06u as=0p ps=0u w=1.08e+06u l=180000u
X105 AVSS XB1/CKN XB1/XA3/MP0/S AVSS sky130_fd_pr__nfet_01v8 ad=0p pd=0u as=0p ps=0u w=1.08e+06u l=180000u
X106 XB1/XA3/B XB1/CKN AVSS AVSS sky130_fd_pr__nfet_01v8 ad=0p pd=0u as=0p ps=0u w=1.08e+06u l=180000u
X107 SAR_IP XB1/XA3/MP0/S XB1/XA3/B AVSS sky130_fd_pr__nfet_01v8 ad=0p pd=0u as=0p ps=0u w=1.08e+06u l=180000u
X108 AVDD AVDD AVDD AVDD sky130_fd_pr__pfet_01v8 ad=0p pd=0u as=0p ps=0u w=1.08e+06u l=180000u
X109 AVSS AVSS AVSS AVSS sky130_fd_pr__nfet_01v8 ad=0p pd=0u as=0p ps=0u w=1.08e+06u l=180000u
X110 XB1/XA4/GNG XB1/CKN XB1/M4/G AVDD sky130_fd_pr__pfet_01v8 ad=0p pd=0u as=0p ps=0u w=1.08e+06u l=180000u
X111 AVDD XB1/M4/G XB1/XA4/GNG AVDD sky130_fd_pr__pfet_01v8 ad=0p pd=0u as=0p ps=0u w=1.08e+06u l=180000u
X112 XB1/XA4/MN1/S XB1/CKN AVSS AVSS sky130_fd_pr__nfet_01v8 ad=0p pd=0u as=0p ps=0u w=1.08e+06u l=180000u
X113 XB1/M4/G XB1/XA1/Y XB1/XA4/MN1/S AVSS sky130_fd_pr__nfet_01v8 ad=0p pd=0u as=0p ps=0u w=1.08e+06u l=180000u
X114 AVDD AVDD AVDD AVDD sky130_fd_pr__pfet_01v8 ad=0p pd=0u as=0p ps=0u w=1.08e+06u l=180000u
X115 AVSS AVSS AVSS AVSS sky130_fd_pr__nfet_01v8 ad=0p pd=0u as=0p ps=0u w=1.08e+06u l=180000u
X116 AVDD AVDD AVDD AVDD sky130_fd_pr__pfet_01v8 ad=0p pd=0u as=0p ps=0u w=1.08e+06u l=180000u
X117 AVSS AVSS AVSS AVSS sky130_fd_pr__nfet_01v8 ad=0p pd=0u as=0p ps=0u w=1.08e+06u l=180000u
X118 XA0/XA11/A XA0/XA9/Y AVDD AVDD sky130_fd_pr__pfet_01v8 ad=0p pd=0u as=0p ps=0u w=1.08e+06u l=180000u
X119 XA0/XA11/A XA0/XA9/Y AVSS AVSS sky130_fd_pr__nfet_01v8 ad=0p pd=0u as=0p ps=0u w=1.08e+06u l=180000u
X120 XA0/XA11/MP1/S XA0/XA11/A AVDD AVDD sky130_fd_pr__pfet_01v8 ad=0p pd=0u as=0p ps=0u w=1.08e+06u l=180000u
X121 XA0/XA12/A XA0/CEIN XA0/XA11/MP1/S AVDD sky130_fd_pr__pfet_01v8 ad=0p pd=0u as=0p ps=0u w=1.08e+06u l=180000u
X122 XA0/XA12/A XA0/XA11/A AVSS AVSS sky130_fd_pr__nfet_01v8 ad=0p pd=0u as=0p ps=0u w=1.08e+06u l=180000u
X123 AVSS XA0/CEIN XA0/XA12/A AVSS sky130_fd_pr__nfet_01v8 ad=0p pd=0u as=0p ps=0u w=1.08e+06u l=180000u
X124 XA0/CEO XA0/XA12/A AVDD AVDD sky130_fd_pr__pfet_01v8 ad=0p pd=0u as=0p ps=0u w=1.08e+06u l=180000u
X125 XA0/CEO XA0/XA12/A AVSS AVSS sky130_fd_pr__nfet_01v8 ad=0p pd=0u as=0p ps=0u w=1.08e+06u l=180000u
X126 AVDD AVDD AVDD AVDD sky130_fd_pr__pfet_01v8 ad=0p pd=0u as=0p ps=0u w=1.08e+06u l=180000u
X127 AVSS AVSS AVSS AVSS sky130_fd_pr__nfet_01v8 ad=0p pd=0u as=0p ps=0u w=1.08e+06u l=180000u
X128 AVDD AVDD AVDD AVDD sky130_fd_pr__pfet_01v8 ad=0p pd=0u as=0p ps=0u w=1.08e+06u l=180000u
X129 AVSS AVSS AVSS AVSS sky130_fd_pr__nfet_01v8 ad=0p pd=0u as=0p ps=0u w=1.08e+06u l=180000u
X130 AVDD EN XA0/XA1/XA1/MP3/G AVDD sky130_fd_pr__pfet_01v8 ad=0p pd=0u as=0p ps=0u w=1.08e+06u l=180000u
X131 XA0/XA1/XA1/MP2/S XA20/CNO XA1/EN AVDD sky130_fd_pr__pfet_01v8 ad=0p pd=0u as=0p ps=0u w=1.08e+06u l=180000u
X132 XA0/XA1/XA1/MP3/S XA20/CPO XA0/XA1/XA1/MP2/S AVDD sky130_fd_pr__pfet_01v8 ad=0p pd=0u as=0p ps=0u w=1.08e+06u l=180000u
X133 XA0/XA1/XA1/MN2/S EN XA0/XA1/XA1/MP3/G AVSS sky130_fd_pr__nfet_01v8 ad=0p pd=0u as=0p ps=0u w=1.08e+06u l=180000u
X134 AVDD XA0/XA1/XA1/MP3/G XA0/XA1/XA1/MP3/S AVDD sky130_fd_pr__pfet_01v8 ad=0p pd=0u as=0p ps=0u w=1.08e+06u l=180000u
X135 XA0/XA1/XA1/MN2/S XA20/CNO AVSS AVSS sky130_fd_pr__nfet_01v8 ad=0p pd=0u as=0p ps=0u w=1.08e+06u l=180000u
X136 AVSS XA20/CPO XA0/XA1/XA1/MN2/S AVSS sky130_fd_pr__nfet_01v8 ad=0p pd=0u as=0p ps=0u w=1.08e+06u l=180000u
X137 XA1/EN XA0/XA1/XA1/MP3/G AVSS AVSS sky130_fd_pr__nfet_01v8 ad=0p pd=0u as=0p ps=0u w=1.08e+06u l=180000u
X138 XA0/XA1/XA2/Y XA1/EN AVDD AVDD sky130_fd_pr__pfet_01v8 ad=0p pd=0u as=0p ps=0u w=1.08e+06u l=180000u
X139 XA0/XA1/XA2/Y XA1/EN AVSS AVSS sky130_fd_pr__nfet_01v8 ad=0p pd=0u as=0p ps=0u w=1.08e+06u l=180000u
X140 XA0/XA1/XA4/MP1/S EN AVDD AVDD sky130_fd_pr__pfet_01v8 ad=0p pd=0u as=0p ps=0u w=1.08e+06u l=180000u
X141 XA0/XA1/XA4/MP2/S EN XA0/XA1/XA4/MP1/S AVDD sky130_fd_pr__pfet_01v8 ad=0p pd=0u as=0p ps=0u w=1.08e+06u l=180000u
X142 XA0/XA1/XA4/MN1/S XA20/CPO AVSS AVSS sky130_fd_pr__nfet_01v8 ad=0p pd=0u as=0p ps=0u w=1.08e+06u l=180000u
X143 XA0/XA4/A EN XA0/XA1/XA4/MP2/S AVDD sky130_fd_pr__pfet_01v8 ad=0p pd=0u as=0p ps=0u w=1.08e+06u l=180000u
X144 XA0/XA1/XA4/MN2/S XA0/XA1/XA2/Y XA0/XA1/XA4/MN1/S AVSS sky130_fd_pr__nfet_01v8 ad=0p pd=0u as=0p ps=0u w=1.08e+06u l=180000u
X145 XA0/XA4/A EN XA0/XA1/XA4/MN2/S AVSS sky130_fd_pr__nfet_01v8 ad=0p pd=0u as=0p ps=0u w=1.08e+06u l=180000u
X146 XA0/XA1/XA5/MP1/S EN AVDD AVDD sky130_fd_pr__pfet_01v8 ad=0p pd=0u as=0p ps=0u w=1.08e+06u l=180000u
X147 XA0/XA1/XA5/MP2/S EN XA0/XA1/XA5/MP1/S AVDD sky130_fd_pr__pfet_01v8 ad=0p pd=0u as=0p ps=0u w=1.08e+06u l=180000u
X148 XA0/XA1/XA5/MN1/S XA20/CNO AVSS AVSS sky130_fd_pr__nfet_01v8 ad=0p pd=0u as=0p ps=0u w=1.08e+06u l=180000u
X149 XA0/XA2/A EN XA0/XA1/XA5/MP2/S AVDD sky130_fd_pr__pfet_01v8 ad=0p pd=0u as=0p ps=0u w=1.08e+06u l=180000u
X150 XA0/XA1/XA5/MN2/S XA0/XA1/XA2/Y XA0/XA1/XA5/MN1/S AVSS sky130_fd_pr__nfet_01v8 ad=0p pd=0u as=0p ps=0u w=1.08e+06u l=180000u
X151 XA0/XA2/A EN XA0/XA1/XA5/MN2/S AVSS sky130_fd_pr__nfet_01v8 ad=0p pd=0u as=0p ps=0u w=1.08e+06u l=180000u
X152 D<8> XA0/XA2/A VREF AVDD sky130_fd_pr__pfet_01v8 ad=2.4624e+12p pd=1.32e+07u as=8.86464e+13p ps=4.752e+08u w=1.08e+06u l=180000u
X153 VREF XA0/XA2/A D<8> AVDD sky130_fd_pr__pfet_01v8 ad=0p pd=0u as=0p ps=0u w=1.08e+06u l=180000u
X154 D<8> XA0/XA2/A VREF AVDD sky130_fd_pr__pfet_01v8 ad=0p pd=0u as=0p ps=0u w=1.08e+06u l=180000u
X155 D<8> XA0/XA2/A AVSS AVSS sky130_fd_pr__nfet_01v8 ad=2.4624e+12p pd=1.32e+07u as=0p ps=0u w=1.08e+06u l=180000u
X156 VREF XA0/XA2/A D<8> AVDD sky130_fd_pr__pfet_01v8 ad=0p pd=0u as=0p ps=0u w=1.08e+06u l=180000u
X157 AVSS XA0/XA2/A D<8> AVSS sky130_fd_pr__nfet_01v8 ad=0p pd=0u as=0p ps=0u w=1.08e+06u l=180000u
X158 D<8> XA0/XA2/A AVSS AVSS sky130_fd_pr__nfet_01v8 ad=0p pd=0u as=0p ps=0u w=1.08e+06u l=180000u
X159 AVSS XA0/XA2/A D<8> AVSS sky130_fd_pr__nfet_01v8 ad=0p pd=0u as=0p ps=0u w=1.08e+06u l=180000u
X160 XA0/CP1 D<8> VREF AVDD sky130_fd_pr__pfet_01v8 ad=0p pd=0u as=0p ps=0u w=1.08e+06u l=180000u
X161 VREF D<8> XA0/CP1 AVDD sky130_fd_pr__pfet_01v8 ad=0p pd=0u as=0p ps=0u w=1.08e+06u l=180000u
X162 XA0/CP1 D<8> VREF AVDD sky130_fd_pr__pfet_01v8 ad=0p pd=0u as=0p ps=0u w=1.08e+06u l=180000u
X163 XA0/CP1 D<8> AVSS AVSS sky130_fd_pr__nfet_01v8 ad=0p pd=0u as=0p ps=0u w=1.08e+06u l=180000u
X164 VREF D<8> XA0/CP1 AVDD sky130_fd_pr__pfet_01v8 ad=0p pd=0u as=0p ps=0u w=1.08e+06u l=180000u
X165 AVSS D<8> XA0/CP1 AVSS sky130_fd_pr__nfet_01v8 ad=0p pd=0u as=0p ps=0u w=1.08e+06u l=180000u
X166 XA0/CP1 D<8> AVSS AVSS sky130_fd_pr__nfet_01v8 ad=0p pd=0u as=0p ps=0u w=1.08e+06u l=180000u
X167 AVSS D<8> XA0/CP1 AVSS sky130_fd_pr__nfet_01v8 ad=0p pd=0u as=0p ps=0u w=1.08e+06u l=180000u
X168 XA0/CP0 XA0/XA4/A VREF AVDD sky130_fd_pr__pfet_01v8 ad=0p pd=0u as=0p ps=0u w=1.08e+06u l=180000u
X169 VREF XA0/XA4/A XA0/CP0 AVDD sky130_fd_pr__pfet_01v8 ad=0p pd=0u as=0p ps=0u w=1.08e+06u l=180000u
X170 XA0/CP0 XA0/XA4/A VREF AVDD sky130_fd_pr__pfet_01v8 ad=0p pd=0u as=0p ps=0u w=1.08e+06u l=180000u
X171 XA0/CP0 XA0/XA4/A AVSS AVSS sky130_fd_pr__nfet_01v8 ad=0p pd=0u as=0p ps=0u w=1.08e+06u l=180000u
X172 VREF XA0/XA4/A XA0/CP0 AVDD sky130_fd_pr__pfet_01v8 ad=0p pd=0u as=0p ps=0u w=1.08e+06u l=180000u
X173 AVSS XA0/XA4/A XA0/CP0 AVSS sky130_fd_pr__nfet_01v8 ad=0p pd=0u as=0p ps=0u w=1.08e+06u l=180000u
X174 XA0/CP0 XA0/XA4/A AVSS AVSS sky130_fd_pr__nfet_01v8 ad=0p pd=0u as=0p ps=0u w=1.08e+06u l=180000u
X175 AVSS XA0/XA4/A XA0/CP0 AVSS sky130_fd_pr__nfet_01v8 ad=0p pd=0u as=0p ps=0u w=1.08e+06u l=180000u
X176 XA0/CN0 XA0/CP0 VREF AVDD sky130_fd_pr__pfet_01v8 ad=0p pd=0u as=0p ps=0u w=1.08e+06u l=180000u
X177 VREF XA0/CP0 XA0/CN0 AVDD sky130_fd_pr__pfet_01v8 ad=0p pd=0u as=0p ps=0u w=1.08e+06u l=180000u
X178 XA0/CN0 XA0/CP0 VREF AVDD sky130_fd_pr__pfet_01v8 ad=0p pd=0u as=0p ps=0u w=1.08e+06u l=180000u
X179 XA0/CN0 XA0/CP0 AVSS AVSS sky130_fd_pr__nfet_01v8 ad=0p pd=0u as=0p ps=0u w=1.08e+06u l=180000u
X180 VREF XA0/CP0 XA0/CN0 AVDD sky130_fd_pr__pfet_01v8 ad=0p pd=0u as=0p ps=0u w=1.08e+06u l=180000u
X181 AVSS XA0/CP0 XA0/CN0 AVSS sky130_fd_pr__nfet_01v8 ad=0p pd=0u as=0p ps=0u w=1.08e+06u l=180000u
X182 XA0/CN0 XA0/CP0 AVSS AVSS sky130_fd_pr__nfet_01v8 ad=0p pd=0u as=0p ps=0u w=1.08e+06u l=180000u
X183 AVSS XA0/CP0 XA0/CN0 AVSS sky130_fd_pr__nfet_01v8 ad=0p pd=0u as=0p ps=0u w=1.08e+06u l=180000u
X184 XA0/XA6/MP1/S XA0/CN0 XA0/XA9/B AVDD sky130_fd_pr__pfet_01v8 ad=0p pd=0u as=0p ps=0u w=1.08e+06u l=180000u
X185 AVDD XA0/CN0 XA0/XA6/MP1/S AVDD sky130_fd_pr__pfet_01v8 ad=0p pd=0u as=0p ps=0u w=1.08e+06u l=180000u
X186 XA0/XA6/MP3/S XA0/CP1 AVDD AVDD sky130_fd_pr__pfet_01v8 ad=0p pd=0u as=0p ps=0u w=1.08e+06u l=180000u
X187 XA0/XA6/MN1/S CK_SAMPLE AVSS AVSS sky130_fd_pr__nfet_01v8 ad=0p pd=0u as=0p ps=0u w=1.08e+06u l=180000u
X188 XA0/XA9/B XA0/CP1 XA0/XA6/MP3/S AVDD sky130_fd_pr__pfet_01v8 ad=0p pd=0u as=0p ps=0u w=1.08e+06u l=180000u
X189 AVSS CK_SAMPLE XA0/XA6/MN1/S AVSS sky130_fd_pr__nfet_01v8 ad=0p pd=0u as=0p ps=0u w=1.08e+06u l=180000u
X190 XA0/XA6/MN3/S CK_SAMPLE AVSS AVSS sky130_fd_pr__nfet_01v8 ad=0p pd=0u as=0p ps=0u w=1.08e+06u l=180000u
X191 XA0/XA9/B CK_SAMPLE XA0/XA6/MN3/S AVSS sky130_fd_pr__nfet_01v8 ad=0p pd=0u as=0p ps=0u w=1.08e+06u l=180000u
X192 XA0/XA9/A XA1/EN AVDD AVDD sky130_fd_pr__pfet_01v8 ad=0p pd=0u as=0p ps=0u w=1.08e+06u l=180000u
X193 XA0/XA9/A XA1/EN AVSS AVSS sky130_fd_pr__nfet_01v8 ad=0p pd=0u as=0p ps=0u w=1.08e+06u l=180000u
X194 XA0/DONE XA0/XA9/A AVDD AVDD sky130_fd_pr__pfet_01v8 ad=0p pd=0u as=0p ps=0u w=1.08e+06u l=180000u
X195 XA0/DONE XA0/XA9/A AVSS AVSS sky130_fd_pr__nfet_01v8 ad=0p pd=0u as=0p ps=0u w=1.08e+06u l=180000u
X196 XA0/XA9/Y XA0/XA9/A AVDD AVDD sky130_fd_pr__pfet_01v8 ad=0p pd=0u as=0p ps=0u w=1.08e+06u l=180000u