* NGSPICE file created from SUNSAR_SAR9B_CV.ext - technology: sky130B

* Replacing the lpe port list (../tech/scripts/fixlpe)
.subckt SUNSAR_SAR9B_CV SAR_IP SAR_IN SARN SARP DONE D<8> D<7> D<6> D<5> D<4> D<3> D<2> D<1> D<0>
+ EN CK_SAMPLE CK_SAMPLE_BSSW VREF AVDD AVSS
*.subckt SUNSAR_SAR9B_CV SAR_IP SAR_IN SARN SARP DONE D<8> D<7> D<6> D<5> D<4>
*+ D<3> D<2> D<1> D<0> EN CK_SAMPLE CK_SAMPLE_BSSW VREF AVDD AVSS
R0 XDAC1.XC128a<1>.XRES16.B XA0.XA6.MP2.G sky130_fd_pr__res_generic_l1 w=0.38 l=0.3
X0 XB1.XA4.MN0.G CK_SAMPLE_BSSW AVSS AVSS sky130_fd_pr__nfet_01v8 ad=0.616 pd=3.3 as=0.616 ps=3.3 w=1.08 l=0.18
X1 AVDD XA4.XA1.XA1.MN0.S XA4.XA1.XA1.MP2.D AVDD sky130_fd_pr__pfet_01v8 ad=0.616 pd=3.3 as=0.616 ps=3.3 w=1.08 l=0.18
X2 AVSS XA8.XA3.MN0.G D<0> AVSS sky130_fd_pr__nfet_01v8 ad=0.616 pd=3.3 as=0.616 ps=3.3 w=1.08 l=0.18
X3 XA5.XA1.XA1.MP1.D XA20.XA3a.MN0.D XA6.XA1.XA5.MN2.G AVDD sky130_fd_pr__pfet_01v8 ad=0.616 pd=3.3 as=0.616 ps=3.3 w=1.08 l=0.18
X4 XA1.XA10.MN0.G XA1.XA9.MN1.G XA1.XA9.MN0.D AVSS sky130_fd_pr__nfet_01v8 ad=0.616 pd=3.3 as=0.616 ps=3.3 w=1.08 l=0.18
X5 XA0.XA12.MN0.D XA0.XA12.MN0.G AVSS AVSS sky130_fd_pr__nfet_01v8 ad=0.616 pd=3.3 as=0.616 ps=3.3 w=1.08 l=0.18
X6 AVDD XA1.XA9.MN1.G XA1.XA10.MN0.G AVDD sky130_fd_pr__pfet_01v8 ad=0.616 pd=3.3 as=0.616 ps=3.3 w=1.08 l=0.18
X7 VREF XA6.XA4.MN0.D XA6.XA6.MP0.G AVDD sky130_fd_pr__pfet_01v8 ad=0.616 pd=3.3 as=0.616 ps=3.3 w=1.08 l=0.18
X8 VREF XA4.XA4.MN0.G XA4.XA4.MN0.D AVDD sky130_fd_pr__pfet_01v8 ad=0.616 pd=3.3 as=0.616 ps=3.3 w=1.08 l=0.18
X9 XA2.XA6.MN0.D CK_SAMPLE AVSS AVSS sky130_fd_pr__nfet_01v8 ad=0.616 pd=3.3 as=0.616 ps=3.3 w=1.08 l=0.18
R1 XDAC1.XC64b<1>.XRES1B.B D<7> sky130_fd_pr__res_generic_l1 w=0.38 l=0.3
X10 XA5.XA10.MN0.D XA5.XA10.MN0.G AVSS AVSS sky130_fd_pr__nfet_01v8 ad=0.616 pd=3.3 as=0.616 ps=3.3 w=1.08 l=0.18
X11 AVSS CK_SAMPLE XA1.XA6.MN0.D AVSS sky130_fd_pr__nfet_01v8 ad=0.616 pd=3.3 as=0.616 ps=3.3 w=1.08 l=0.18
X12 VREF XA6.XA4.MN0.G XA6.XA4.MN0.D AVDD sky130_fd_pr__pfet_01v8 ad=0.616 pd=3.3 as=0.616 ps=3.3 w=1.08 l=0.18
X13 AVDD XA1.XA6.MP0.G XA1.XA6.MP0.D AVDD sky130_fd_pr__pfet_01v8 ad=0.616 pd=3.3 as=0.616 ps=3.3 w=1.08 l=0.18
X14 VREF XA4.XA3.MN0.G D<4> AVDD sky130_fd_pr__pfet_01v8 ad=0.616 pd=3.3 as=0.616 ps=3.3 w=1.08 l=0.18
X15 XA2.XA3.MN0.G XA2.XA1.XA5.MN2.D AVSS AVSS sky130_fd_pr__nfet_01v8 ad=0.616 pd=3.3 as=0.616 ps=3.3 w=1.08 l=0.18
X16 XA8.XA9.MN1.G CK_SAMPLE XA8.XA6.MN2.D AVSS sky130_fd_pr__nfet_01v8 ad=0.616 pd=3.3 as=0.616 ps=3.3 w=1.08 l=0.18
X17 XA5.XA6.MN2.D CK_SAMPLE AVSS AVSS sky130_fd_pr__nfet_01v8 ad=0.616 pd=3.3 as=0.616 ps=3.3 w=1.08 l=0.18
R2 XA0.XA6.MP0.G XDAC2.XC1.XRES8.B sky130_fd_pr__res_generic_l1 w=0.38 l=0.3
X18 VREF XA6.XA1.XA5.MN2.D XA6.XA3.MN0.G AVDD sky130_fd_pr__pfet_01v8 ad=0.616 pd=3.3 as=0.616 ps=3.3 w=1.08 l=0.18
X19 XA20.XA2.MN1.D SARP XA20.XA3.MN0.D AVSS sky130_fd_pr__nfet_01v8 ad=0.616 pd=3.3 as=0.616 ps=3.3 w=1.08 l=0.18
X20 XA20.XA3a.MN0.G XA20.XA3.MN6.D AVDD AVDD sky130_fd_pr__pfet_01v8 ad=0.616 pd=3.3 as=0.616 ps=3.3 w=1.08 l=0.18
X21 XA6.XA1.XA5.MP0.D EN AVDD AVDD sky130_fd_pr__pfet_01v8 ad=0.616 pd=3.3 as=0.616 ps=3.3 w=1.08 l=0.18
X22 XA4.XA9.MN1.G D<4> XA4.XA6.MP2.D AVDD sky130_fd_pr__pfet_01v8 ad=0.616 pd=3.3 as=0.616 ps=3.3 w=1.08 l=0.18
X23 AVSS XA2.XA4.MN0.D XA2.XA6.MP0.G AVSS sky130_fd_pr__nfet_01v8 ad=0.616 pd=3.3 as=0.616 ps=3.3 w=1.08 l=0.18
R3 XDAC1.XC128b<2>.XRES1B.B XA0.XA4.MN0.D sky130_fd_pr__res_generic_l1 w=0.38 l=0.3
X24 XA8.XA11.MN1.G XA7.XA12.MN0.G AVSS AVSS sky130_fd_pr__nfet_01v8 ad=0.616 pd=3.3 as=0.616 ps=3.3 w=1.08 l=0.18
X25 XA5.XA10.MN0.G XA5.XA9.MN1.G XA5.XA9.MN0.D AVSS sky130_fd_pr__nfet_01v8 ad=0.616 pd=3.3 as=0.616 ps=3.3 w=1.08 l=0.18
X26 XA5.XA1.XA1.MP2.D XA20.XA2a.MN0.D XA5.XA1.XA1.MP1.D AVDD sky130_fd_pr__pfet_01v8 ad=0.616 pd=3.3 as=0.616 ps=3.3 w=1.08 l=0.18
X27 XA8.XA11.MN1.G XA7.XA12.MN0.G AVDD AVDD sky130_fd_pr__pfet_01v8 ad=0.616 pd=3.3 as=0.616 ps=3.3 w=1.08 l=0.18
X28 XA6.XA4.MN0.D XA6.XA4.MN0.G VREF AVDD sky130_fd_pr__pfet_01v8 ad=0.616 pd=3.3 as=0.616 ps=3.3 w=1.08 l=0.18
X29 AVDD XA20.XA9.MN0.D XA20.XA1.MN0.D AVSS sky130_fd_pr__nfet_01v8 ad=0.616 pd=3.3 as=0.616 ps=3.3 w=1.08 l=0.18
X30 AVSS AVSS AVSS AVSS sky130_fd_pr__nfet_01v8 ad=227 pd=1.22k as=0.616 ps=3.3 w=1.08 l=0.18
X31 AVSS XA2.XA4.MN0.G XA2.XA4.MN0.D AVSS sky130_fd_pr__nfet_01v8 ad=0.616 pd=3.3 as=0.616 ps=3.3 w=1.08 l=0.18
R4 XDAC1.XC32a<0>.XRES16.B D<6> sky130_fd_pr__res_generic_l1 w=0.38 l=0.3
X32 AVDD AVDD AVDD AVDD sky130_fd_pr__pfet_01v8 ad=150 pd=802 as=0.616 ps=3.3 w=1.08 l=0.18
X33 AVSS XA8.XA11.MN1.G XA8.XA12.MN0.G AVSS sky130_fd_pr__nfet_01v8 ad=0.616 pd=3.3 as=0.616 ps=3.3 w=1.08 l=0.18
X34 AVSS CK_SAMPLE XA5.XA6.MN0.D AVSS sky130_fd_pr__nfet_01v8 ad=0.616 pd=3.3 as=0.616 ps=3.3 w=1.08 l=0.18
X35 AVSS XA20.XA3.MN6.D XA20.XA2a.MN0.D AVSS sky130_fd_pr__nfet_01v8 ad=0.616 pd=3.3 as=0.616 ps=3.3 w=1.08 l=0.18
X36 AVDD XA20.XA3.MN6.D XA20.XA2a.MN0.D AVDD sky130_fd_pr__pfet_01v8 ad=0.616 pd=3.3 as=0.616 ps=3.3 w=1.08 l=0.18
X37 VREF XA0.XA1.XA5.MN2.D D<8> AVDD sky130_fd_pr__pfet_01v8 ad=0.616 pd=3.3 as=0.616 ps=3.3 w=1.08 l=0.18
X38 XA20.XA1.MN0.D XA20.XA10.MN1.D AVSS AVSS sky130_fd_pr__nfet_01v8 ad=0.616 pd=3.3 as=0.616 ps=3.3 w=1.08 l=0.18
X39 XA0.XA9.MN0.D XA0.XA7.MN0.D AVSS AVSS sky130_fd_pr__nfet_01v8 ad=0.616 pd=3.3 as=0.616 ps=3.3 w=1.08 l=0.18
X40 AVSS XA2.XA1.XA5.MN2.D XA2.XA3.MN0.G AVSS sky130_fd_pr__nfet_01v8 ad=0.616 pd=3.3 as=0.616 ps=3.3 w=1.08 l=0.18
R5 XDAC1.X16ab.XRES1B.B D<5> sky130_fd_pr__res_generic_l1 w=0.38 l=0.3
X41 AVDD XA20.XA10.MN1.D XA20.XA1.MN0.D AVDD sky130_fd_pr__pfet_01v8 ad=0.616 pd=3.3 as=0.616 ps=3.3 w=1.08 l=0.18
R6 D<8> XDAC2.XC0.XRES8.B sky130_fd_pr__res_generic_l1 w=0.38 l=0.3
X42 XA8.XA4.MN0.G EN XA8.XA1.XA4.MP1.D AVDD sky130_fd_pr__pfet_01v8 ad=0.616 pd=3.3 as=0.616 ps=3.3 w=1.08 l=0.18
X43 XA8.XA7.MN0.D XA8.XA7.MN0.G AVSS AVSS sky130_fd_pr__nfet_01v8 ad=0.616 pd=3.3 as=0.616 ps=3.3 w=1.08 l=0.18
X44 XA20.XA3.MN0.D SARP XA20.XA2.MN1.D AVSS sky130_fd_pr__nfet_01v8 ad=0.616 pd=3.3 as=0.616 ps=3.3 w=1.08 l=0.18
X45 AVDD XA20.XA3.MN6.D XA20.XA3a.MN0.G AVDD sky130_fd_pr__pfet_01v8 ad=0.616 pd=3.3 as=0.616 ps=3.3 w=1.08 l=0.18
X46 XA0.XA1.XA4.MP1.D EN XA0.XA1.XA4.MP0.D AVDD sky130_fd_pr__pfet_01v8 ad=0.616 pd=3.3 as=0.616 ps=3.3 w=1.08 l=0.18
X47 XA4.XA12.MN0.G XA4.XA11.MN1.G XA4.XA11.MP0.D AVDD sky130_fd_pr__pfet_01v8 ad=0.616 pd=3.3 as=0.616 ps=3.3 w=1.08 l=0.18
X48 VREF XA5.XA4.MN0.D XA5.XA6.MP0.G AVDD sky130_fd_pr__pfet_01v8 ad=0.616 pd=3.3 as=0.616 ps=3.3 w=1.08 l=0.18
X49 XA2.XA1.XA5.MN0.D XA20.XA3a.MN0.D AVSS AVSS sky130_fd_pr__nfet_01v8 ad=0.616 pd=3.3 as=0.616 ps=3.3 w=1.08 l=0.18
X50 XA8.XA1.XA1.MP1.D XA20.XA3a.MN0.D XA8.XA7.MN0.G AVDD sky130_fd_pr__pfet_01v8 ad=0.616 pd=3.3 as=0.616 ps=3.3 w=1.08 l=0.18
X51 XA0.XA6.MP2.G D<8> VREF AVDD sky130_fd_pr__pfet_01v8 ad=0.616 pd=3.3 as=0.616 ps=3.3 w=1.08 l=0.18
X52 SARN XB2.XA4.MN1.D SAR_IN AVSS sky130_fd_pr__nfet_01v8 ad=0.616 pd=3.3 as=0.616 ps=3.3 w=1.08 l=0.18
X53 XA20.XA1.MN0.D SARP XA20.XA1.MN0.D AVSS sky130_fd_pr__nfet_01v8 ad=0.616 pd=3.3 as=7.39 ps=39.6 w=1.08 l=0.18
X54 XA6.XA10.MN0.D XA6.XA10.MN0.G AVDD AVDD sky130_fd_pr__pfet_01v8 ad=0.616 pd=3.3 as=0.616 ps=3.3 w=1.08 l=0.18
X55 XA2.XA4.MN0.D XA2.XA4.MN0.G AVSS AVSS sky130_fd_pr__nfet_01v8 ad=0.616 pd=3.3 as=0.616 ps=3.3 w=1.08 l=0.18
X56 AVDD XB1.XA4.MN0.G XB1.XA3.MN0.S AVDD sky130_fd_pr__pfet_01v8 ad=0.616 pd=3.3 as=0.616 ps=3.3 w=1.08 l=0.18
X57 AVDD EN XA0.XA1.XA1.MN0.S AVDD sky130_fd_pr__pfet_01v8 ad=0.616 pd=3.3 as=0.616 ps=3.3 w=1.08 l=0.18
X58 AVDD AVDD AVDD AVDD sky130_fd_pr__pfet_01v8 ad=0 pd=0 as=0.616 ps=3.3 w=1.08 l=0.18
X59 XA4.XA7.MN0.D XA5.XA1.XA5.MN2.G AVDD AVDD sky130_fd_pr__pfet_01v8 ad=0.616 pd=3.3 as=0.616 ps=3.3 w=1.08 l=0.18
X60 VREF XA5.XA3.MN0.G D<3> AVDD sky130_fd_pr__pfet_01v8 ad=0.616 pd=3.3 as=0.616 ps=3.3 w=1.08 l=0.18
X61 AVDD AVDD AVDD AVDD sky130_fd_pr__pfet_01v8 ad=0 pd=0 as=0.616 ps=3.3 w=1.08 l=0.18
X62 AVSS AVSS AVSS AVSS sky130_fd_pr__nfet_01v8 ad=0 pd=0 as=0.616 ps=3.3 w=1.08 l=0.18
X63 XA8.XA12.MN0.G XA8.XA10.MN0.D AVSS AVSS sky130_fd_pr__nfet_01v8 ad=0.616 pd=3.3 as=0.616 ps=3.3 w=1.08 l=0.18
R7 XDAC1.XC1.XRES1B.B XA0.XA4.MN0.D sky130_fd_pr__res_generic_l1 w=0.38 l=0.3
X64 D<8> XA0.XA1.XA5.MN2.D VREF AVDD sky130_fd_pr__pfet_01v8 ad=0.616 pd=3.3 as=0.616 ps=3.3 w=1.08 l=0.18
X65 AVSS AVSS AVSS AVSS sky130_fd_pr__nfet_01v8 ad=0.616 pd=3.3 as=0 ps=0 w=1.08 l=0.18
X66 XA6.XA6.MP2.D D<2> AVDD AVDD sky130_fd_pr__pfet_01v8 ad=0.616 pd=3.3 as=0.616 ps=3.3 w=1.08 l=0.18
X67 AVSS AVSS AVSS AVSS sky130_fd_pr__nfet_01v8 ad=0 pd=0 as=0.616 ps=3.3 w=1.08 l=0.18
X68 AVDD AVDD AVDD AVDD sky130_fd_pr__pfet_01v8 ad=0 pd=0 as=0.616 ps=3.3 w=1.08 l=0.18
X69 XA7.XA9.MN0.D XA7.XA7.MN0.D AVSS AVSS sky130_fd_pr__nfet_01v8 ad=0.616 pd=3.3 as=0.616 ps=3.3 w=1.08 l=0.18
X70 XA7.XA10.MN0.G XA7.XA7.MN0.D AVDD AVDD sky130_fd_pr__pfet_01v8 ad=0.616 pd=3.3 as=0.616 ps=3.3 w=1.08 l=0.18
X71 XA3.XA1.XA5.MN2.D XA3.XA1.XA5.MN2.G XA3.XA1.XA5.MN1.D AVSS sky130_fd_pr__nfet_01v8 ad=0.616 pd=3.3 as=0.616 ps=3.3 w=1.08 l=0.18
X72 XA3.XA1.XA5.MN2.D EN XA3.XA1.XA5.MP1.D AVDD sky130_fd_pr__pfet_01v8 ad=0.616 pd=3.3 as=0.616 ps=3.3 w=1.08 l=0.18
X73 XA0.XA1.XA4.MP0.D EN AVDD AVDD sky130_fd_pr__pfet_01v8 ad=0.616 pd=3.3 as=0.616 ps=3.3 w=1.08 l=0.18
X74 XA4.XA11.MP0.D XA4.XA10.MN0.D AVDD AVDD sky130_fd_pr__pfet_01v8 ad=0.616 pd=3.3 as=0.616 ps=3.3 w=1.08 l=0.18
X75 XA3.XA4.MN0.D XA3.XA4.MN0.G AVSS AVSS sky130_fd_pr__nfet_01v8 ad=0.616 pd=3.3 as=0.616 ps=3.3 w=1.08 l=0.18
R8 XA0.XA6.MP0.G XDAC2.XC128b<2>.XRES1A.B sky130_fd_pr__res_generic_l1 w=0.38 l=0.3
X76 XA3.XA1.XA2.MN0.D XA4.XA1.XA5.MN2.G AVSS AVSS sky130_fd_pr__nfet_01v8 ad=0.616 pd=3.3 as=0.616 ps=3.3 w=1.08 l=0.18
X77 XA3.XA4.MN0.D XA3.XA4.MN0.G VREF AVDD sky130_fd_pr__pfet_01v8 ad=0.616 pd=3.3 as=0.616 ps=3.3 w=1.08 l=0.18
X78 XA3.XA1.XA2.MN0.D XA4.XA1.XA5.MN2.G AVDD AVDD sky130_fd_pr__pfet_01v8 ad=0.616 pd=3.3 as=0.616 ps=3.3 w=1.08 l=0.18
X79 AVDD XA6.XA9.MN1.G XA6.XA10.MN0.G AVDD sky130_fd_pr__pfet_01v8 ad=0.616 pd=3.3 as=0.616 ps=3.3 w=1.08 l=0.18
X80 AVDD AVDD AVDD AVDD sky130_fd_pr__pfet_01v8 ad=0 pd=0 as=0.616 ps=3.3 w=1.08 l=0.18
X81 XA2.XA10.MN0.D XA2.XA10.MN0.G AVSS AVSS sky130_fd_pr__nfet_01v8 ad=0.616 pd=3.3 as=0.616 ps=3.3 w=1.08 l=0.18
X82 XA5.XA6.MP0.G XA5.XA4.MN0.D VREF AVDD sky130_fd_pr__pfet_01v8 ad=0.616 pd=3.3 as=0.616 ps=3.3 w=1.08 l=0.18
X83 XA8.XA1.XA1.MP2.D XA20.XA2a.MN0.D XA8.XA1.XA1.MP1.D AVDD sky130_fd_pr__pfet_01v8 ad=0.616 pd=3.3 as=0.616 ps=3.3 w=1.08 l=0.18
X84 D<5> XA3.XA3.MN0.G VREF AVDD sky130_fd_pr__pfet_01v8 ad=0.616 pd=3.3 as=0.616 ps=3.3 w=1.08 l=0.18
X85 D<5> XA3.XA3.MN0.G AVSS AVSS sky130_fd_pr__nfet_01v8 ad=0.616 pd=3.3 as=0.616 ps=3.3 w=1.08 l=0.18
X86 XA20.XA4.MN0.D SARN XA20.XA4.MN0.D AVSS sky130_fd_pr__nfet_01v8 ad=0.616 pd=3.3 as=7.39 ps=39.6 w=1.08 l=0.18
X87 SARN XA0.XA11.MN1.G SAR_IP AVSS sky130_fd_pr__nfet_01v8 ad=0.616 pd=3.3 as=0.616 ps=3.3 w=1.08 l=0.18
X88 AVDD AVDD AVDD AVDD sky130_fd_pr__pfet_01v8 ad=0 pd=0 as=0.616 ps=3.3 w=1.08 l=0.18
X89 AVDD XA6.XA6.MP0.G XA6.XA6.MP0.D AVDD sky130_fd_pr__pfet_01v8 ad=0.616 pd=3.3 as=0.616 ps=3.3 w=1.08 l=0.18
X90 XA2.XA6.MN2.D CK_SAMPLE AVSS AVSS sky130_fd_pr__nfet_01v8 ad=0.616 pd=3.3 as=0.616 ps=3.3 w=1.08 l=0.18
X91 XA3.XA1.XA5.MN1.D XA3.XA1.XA2.MN0.D XA3.XA1.XA5.MN0.D AVSS sky130_fd_pr__nfet_01v8 ad=0.616 pd=3.3 as=0.616 ps=3.3 w=1.08 l=0.18
X92 XA20.XA3.MN1.D SARN XA20.XA3.MN0.D AVSS sky130_fd_pr__nfet_01v8 ad=0.616 pd=3.3 as=0.616 ps=3.3 w=1.08 l=0.18
X93 XA3.XA1.XA5.MP1.D EN XA3.XA1.XA5.MP0.D AVDD sky130_fd_pr__pfet_01v8 ad=0.616 pd=3.3 as=0.616 ps=3.3 w=1.08 l=0.18
X94 XA20.XA3.MN1.D XA20.XA9.MN0.D AVDD AVDD sky130_fd_pr__pfet_01v8 ad=0.616 pd=3.3 as=0.616 ps=3.3 w=1.08 l=0.18
X95 XA6.XA4.MN0.G XA6.XA1.XA5.MN2.G XA6.XA1.XA4.MN1.D AVSS sky130_fd_pr__nfet_01v8 ad=0.616 pd=3.3 as=0.616 ps=3.3 w=1.08 l=0.18
X96 XA4.XA1.XA5.MN2.G XA3.XA1.XA1.MN0.S AVSS AVSS sky130_fd_pr__nfet_01v8 ad=0.616 pd=3.3 as=0.616 ps=3.3 w=1.08 l=0.18
X97 XA6.XA1.XA1.MN0.D XA20.XA3a.MN0.D AVSS AVSS sky130_fd_pr__nfet_01v8 ad=0.616 pd=3.3 as=0.616 ps=3.3 w=1.08 l=0.18
X98 AVDD XA3.XA1.XA1.MN0.S XA3.XA1.XA1.MP2.D AVDD sky130_fd_pr__pfet_01v8 ad=0.616 pd=3.3 as=0.616 ps=3.3 w=1.08 l=0.18
X99 XA0.XA8.MN0.D XA0.XA7.MN0.D AVDD AVDD sky130_fd_pr__pfet_01v8 ad=0.616 pd=3.3 as=0.616 ps=3.3 w=1.08 l=0.18
X100 VREF XA8.XA4.MN0.D XA8.XA6.MP0.G AVDD sky130_fd_pr__pfet_01v8 ad=0.616 pd=3.3 as=0.616 ps=3.3 w=1.08 l=0.18
X101 XA2.XA10.MN0.G XA2.XA9.MN1.G XA2.XA9.MN0.D AVSS sky130_fd_pr__nfet_01v8 ad=0.616 pd=3.3 as=0.616 ps=3.3 w=1.08 l=0.18
X102 VREF XA3.XA4.MN0.G XA3.XA4.MN0.D AVDD sky130_fd_pr__pfet_01v8 ad=0.616 pd=3.3 as=0.616 ps=3.3 w=1.08 l=0.18
X103 AVSS XA3.XA4.MN0.G XA3.XA4.MN0.D AVSS sky130_fd_pr__nfet_01v8 ad=0.616 pd=3.3 as=0.616 ps=3.3 w=1.08 l=0.18
X104 XA0.XA6.MP0.G XA0.XA4.MN0.D VREF AVDD sky130_fd_pr__pfet_01v8 ad=0.616 pd=3.3 as=0.616 ps=3.3 w=1.08 l=0.18
X105 SARN XA0.XA11.MN1.G SAR_IP AVSS sky130_fd_pr__nfet_01v8 ad=0.616 pd=3.3 as=0.616 ps=3.3 w=1.08 l=0.18
X106 VREF XA8.XA3.MN0.G D<0> AVDD sky130_fd_pr__pfet_01v8 ad=0.616 pd=3.3 as=0.616 ps=3.3 w=1.08 l=0.18
X107 VREF XA2.XA1.XA5.MN2.D XA2.XA3.MN0.G AVDD sky130_fd_pr__pfet_01v8 ad=0.616 pd=3.3 as=0.616 ps=3.3 w=1.08 l=0.18
X108 AVSS CK_SAMPLE XA2.XA6.MN0.D AVSS sky130_fd_pr__nfet_01v8 ad=0.616 pd=3.3 as=0.616 ps=3.3 w=1.08 l=0.18
X109 AVSS XA3.XA3.MN0.G D<5> AVSS sky130_fd_pr__nfet_01v8 ad=0.616 pd=3.3 as=0.616 ps=3.3 w=1.08 l=0.18
R9 XA0.XA6.MP0.G XDAC2.XC1.XRES1B.B sky130_fd_pr__res_generic_l1 w=0.38 l=0.3
X110 VREF XA3.XA3.MN0.G D<5> AVDD sky130_fd_pr__pfet_01v8 ad=0.616 pd=3.3 as=0.616 ps=3.3 w=1.08 l=0.18
X111 XB2.XA4.MN0.G CK_SAMPLE_BSSW AVDD AVDD sky130_fd_pr__pfet_01v8 ad=0.616 pd=3.3 as=0.616 ps=3.3 w=1.08 l=0.18
X112 XA2.XA1.XA4.MP1.D EN XA2.XA1.XA4.MP0.D AVDD sky130_fd_pr__pfet_01v8 ad=0.616 pd=3.3 as=0.616 ps=3.3 w=1.08 l=0.18
X113 XA6.XA11.MN1.G XA5.XA12.MN0.G AVDD AVDD sky130_fd_pr__pfet_01v8 ad=0.616 pd=3.3 as=0.616 ps=3.3 w=1.08 l=0.18
X114 XA4.XA6.MN0.D CK_SAMPLE AVSS AVSS sky130_fd_pr__nfet_01v8 ad=0.616 pd=3.3 as=0.616 ps=3.3 w=1.08 l=0.18
X115 D<6> XA2.XA3.MN0.G VREF AVDD sky130_fd_pr__pfet_01v8 ad=0.616 pd=3.3 as=0.616 ps=3.3 w=1.08 l=0.18
X116 AVDD EN XA2.XA1.XA1.MN0.S AVDD sky130_fd_pr__pfet_01v8 ad=0.616 pd=3.3 as=0.616 ps=3.3 w=1.08 l=0.18
X117 XA3.XA9.MN1.G CK_SAMPLE XA3.XA6.MN2.D AVSS sky130_fd_pr__nfet_01v8 ad=0.616 pd=3.3 as=0.616 ps=3.3 w=1.08 l=0.18
X118 XA3.XA9.MN1.G D<5> XA3.XA6.MP2.D AVDD sky130_fd_pr__pfet_01v8 ad=0.616 pd=3.3 as=0.616 ps=3.3 w=1.08 l=0.18
X119 XA4.XA3.MN0.G XA4.XA1.XA5.MN2.D AVSS AVSS sky130_fd_pr__nfet_01v8 ad=0.616 pd=3.3 as=0.616 ps=3.3 w=1.08 l=0.18
X120 AVSS XA20.XA2a.MN0.D XA6.XA1.XA1.MN0.D AVSS sky130_fd_pr__nfet_01v8 ad=0.616 pd=3.3 as=0.616 ps=3.3 w=1.08 l=0.18
X121 XA8.XA6.MP0.G XA8.XA4.MN0.D VREF AVDD sky130_fd_pr__pfet_01v8 ad=0.616 pd=3.3 as=0.616 ps=3.3 w=1.08 l=0.18
X122 XA2.XA3.MN0.G XA2.XA1.XA5.MN2.D VREF AVDD sky130_fd_pr__pfet_01v8 ad=0.616 pd=3.3 as=0.616 ps=3.3 w=1.08 l=0.18
R10 XA1.XA6.MP0.G XDAC2.XC64a<0>.XRES4.B sky130_fd_pr__res_generic_l1 w=0.38 l=0.3
R11 XDAC1.XC0.XRES2.B XA0.XA6.MP2.G sky130_fd_pr__res_generic_l1 w=0.38 l=0.3
R12 D<8> XDAC2.XC0.XRES1A.B sky130_fd_pr__res_generic_l1 w=0.38 l=0.3
X123 XA2.XA1.XA4.MP0.D EN AVDD AVDD sky130_fd_pr__pfet_01v8 ad=0.616 pd=3.3 as=0.616 ps=3.3 w=1.08 l=0.18
X124 AVSS XA4.XA4.MN0.D XA4.XA6.MP0.G AVSS sky130_fd_pr__nfet_01v8 ad=0.616 pd=3.3 as=0.616 ps=3.3 w=1.08 l=0.18
R13 XA2.XA6.MP0.G XDAC2.X16ab.XRES16.B sky130_fd_pr__res_generic_l1 w=0.38 l=0.3
X125 AVDD AVDD AVDD AVDD sky130_fd_pr__pfet_01v8 ad=0 pd=0 as=0.616 ps=3.3 w=1.08 l=0.18
X126 AVDD AVDD AVDD AVDD sky130_fd_pr__pfet_01v8 ad=0 pd=0 as=0.616 ps=3.3 w=1.08 l=0.18
X127 AVSS XA3.XA11.MN1.G XA3.XA12.MN0.G AVSS sky130_fd_pr__nfet_01v8 ad=0.616 pd=3.3 as=0.616 ps=3.3 w=1.08 l=0.18
X128 AVSS XA6.XA4.MN0.D XA6.XA6.MP0.G AVSS sky130_fd_pr__nfet_01v8 ad=0.616 pd=3.3 as=0.616 ps=3.3 w=1.08 l=0.18
X129 XA3.XA12.MN0.G XA3.XA11.MN1.G XA3.XA11.MP0.D AVDD sky130_fd_pr__pfet_01v8 ad=0.616 pd=3.3 as=0.616 ps=3.3 w=1.08 l=0.18
X130 AVSS XA4.XA4.MN0.G XA4.XA4.MN0.D AVSS sky130_fd_pr__nfet_01v8 ad=0.616 pd=3.3 as=0.616 ps=3.3 w=1.08 l=0.18
X131 XA5.XA10.MN0.G XA5.XA7.MN0.D AVDD AVDD sky130_fd_pr__pfet_01v8 ad=0.616 pd=3.3 as=0.616 ps=3.3 w=1.08 l=0.18
X132 XA1.XA1.XA5.MN2.D XA0.XA7.MN0.G XA1.XA1.XA5.MN1.D AVSS sky130_fd_pr__nfet_01v8 ad=0.616 pd=3.3 as=0.616 ps=3.3 w=1.08 l=0.18
X133 XA3.XA7.MN0.D XA4.XA1.XA5.MN2.G AVSS AVSS sky130_fd_pr__nfet_01v8 ad=0.616 pd=3.3 as=0.616 ps=3.3 w=1.08 l=0.18
X134 AVSS XA6.XA3.MN0.G D<2> AVSS sky130_fd_pr__nfet_01v8 ad=0.616 pd=3.3 as=0.616 ps=3.3 w=1.08 l=0.18
X135 AVSS XA4.XA1.XA5.MN2.D XA4.XA3.MN0.G AVSS sky130_fd_pr__nfet_01v8 ad=0.616 pd=3.3 as=0.616 ps=3.3 w=1.08 l=0.18
X136 XA1.XA1.XA5.MN2.D EN XA1.XA1.XA5.MP1.D AVDD sky130_fd_pr__pfet_01v8 ad=0.616 pd=3.3 as=0.616 ps=3.3 w=1.08 l=0.18
X137 XA3.XA7.MN0.D XA4.XA1.XA5.MN2.G AVDD AVDD sky130_fd_pr__pfet_01v8 ad=0.616 pd=3.3 as=0.616 ps=3.3 w=1.08 l=0.18
R14 XA1.XA3.MN0.G XDAC2.XC64b<1>.XRES16.B sky130_fd_pr__res_generic_l1 w=0.38 l=0.3
R15 XDAC1.XC64b<1>.XRES8.B D<7> sky130_fd_pr__res_generic_l1 w=0.38 l=0.3
X138 XA1.XA4.MN0.D XA1.XA4.MN0.G AVSS AVSS sky130_fd_pr__nfet_01v8 ad=0.616 pd=3.3 as=0.616 ps=3.3 w=1.08 l=0.18
X139 XA1.XA4.MN0.D XA1.XA4.MN0.G VREF AVDD sky130_fd_pr__pfet_01v8 ad=0.616 pd=3.3 as=0.616 ps=3.3 w=1.08 l=0.18
R16 XB1.XCAPB1.XCAPB4.B m3_7544_1364# sky130_fd_pr__res_generic_m3 w=0.44 l=0.36
X140 XA1.XA1.XA2.MN0.D XA2.XA1.XA5.MN2.G AVSS AVSS sky130_fd_pr__nfet_01v8 ad=0.616 pd=3.3 as=0.616 ps=3.3 w=1.08 l=0.18
X141 XA1.XA1.XA2.MN0.D XA2.XA1.XA5.MN2.G AVDD AVDD sky130_fd_pr__pfet_01v8 ad=0.616 pd=3.3 as=0.616 ps=3.3 w=1.08 l=0.18
X142 XA4.XA1.XA5.MN0.D XA20.XA3a.MN0.D AVSS AVSS sky130_fd_pr__nfet_01v8 ad=0.616 pd=3.3 as=0.616 ps=3.3 w=1.08 l=0.18
R17 XB1.XCAPB1.XCAPB4.B m3_7544_4532# sky130_fd_pr__res_generic_m3 w=0.44 l=0.36
R18 XB2.XCAPB1.XCAPB4.A m3_26048_3300# sky130_fd_pr__res_generic_m3 w=0.44 l=0.36
X143 XA20.XA12.MN0.G XA8.XA12.MN0.G AVDD AVDD sky130_fd_pr__pfet_01v8 ad=0.616 pd=3.3 as=0.616 ps=3.3 w=1.08 l=0.18
X144 XA2.XA8.MN0.D XA2.XA7.MN0.D AVDD AVDD sky130_fd_pr__pfet_01v8 ad=0.616 pd=3.3 as=0.616 ps=3.3 w=1.08 l=0.18
X145 D<7> XA1.XA3.MN0.G AVSS AVSS sky130_fd_pr__nfet_01v8 ad=0.616 pd=3.3 as=0.616 ps=3.3 w=1.08 l=0.18
X146 XA3.XA12.MN0.G XA3.XA10.MN0.D AVSS AVSS sky130_fd_pr__nfet_01v8 ad=0.616 pd=3.3 as=0.616 ps=3.3 w=1.08 l=0.18
X147 XA0.XA6.MN0.D CK_SAMPLE AVSS AVSS sky130_fd_pr__nfet_01v8 ad=0.616 pd=3.3 as=0.616 ps=3.3 w=1.08 l=0.18
X148 XA4.XA4.MN0.D XA4.XA4.MN0.G AVSS AVSS sky130_fd_pr__nfet_01v8 ad=0.616 pd=3.3 as=0.616 ps=3.3 w=1.08 l=0.18
X149 D<7> XA1.XA3.MN0.G VREF AVDD sky130_fd_pr__pfet_01v8 ad=0.616 pd=3.3 as=0.616 ps=3.3 w=1.08 l=0.18
X150 XA3.XA11.MP0.D XA3.XA10.MN0.D AVDD AVDD sky130_fd_pr__pfet_01v8 ad=0.616 pd=3.3 as=0.616 ps=3.3 w=1.08 l=0.18
X151 XA2.XA6.MP0.G XA2.XA4.MN0.D VREF AVDD sky130_fd_pr__pfet_01v8 ad=0.616 pd=3.3 as=0.616 ps=3.3 w=1.08 l=0.18
X152 XA1.XA1.XA5.MN1.D XA1.XA1.XA2.MN0.D XA1.XA1.XA5.MN0.D AVSS sky130_fd_pr__nfet_01v8 ad=0.616 pd=3.3 as=0.616 ps=3.3 w=1.08 l=0.18
X153 D<8> XA0.XA1.XA5.MN2.D AVSS AVSS sky130_fd_pr__nfet_01v8 ad=0.616 pd=3.3 as=0.616 ps=3.3 w=1.08 l=0.18
X154 XA1.XA1.XA5.MP1.D EN XA1.XA1.XA5.MP0.D AVDD sky130_fd_pr__pfet_01v8 ad=0.616 pd=3.3 as=0.616 ps=3.3 w=1.08 l=0.18
X155 XA6.XA6.MP0.G XA6.XA4.MN0.D AVSS AVSS sky130_fd_pr__nfet_01v8 ad=0.616 pd=3.3 as=0.616 ps=3.3 w=1.08 l=0.18
X156 XA5.XA1.XA5.MN2.D XA5.XA1.XA5.MN2.G XA5.XA1.XA5.MN1.D AVSS sky130_fd_pr__nfet_01v8 ad=0.616 pd=3.3 as=0.616 ps=3.3 w=1.08 l=0.18
X157 XA2.XA1.XA5.MN2.G XA1.XA1.XA1.MN0.S AVSS AVSS sky130_fd_pr__nfet_01v8 ad=0.616 pd=3.3 as=0.616 ps=3.3 w=1.08 l=0.18
X158 AVDD XA1.XA1.XA1.MN0.S XA1.XA1.XA1.MP2.D AVDD sky130_fd_pr__pfet_01v8 ad=0.616 pd=3.3 as=0.616 ps=3.3 w=1.08 l=0.18
X159 XA5.XA4.MN0.D XA5.XA4.MN0.G AVSS AVSS sky130_fd_pr__nfet_01v8 ad=0.616 pd=3.3 as=0.616 ps=3.3 w=1.08 l=0.18
X160 AVSS XA1.XA4.MN0.G XA1.XA4.MN0.D AVSS sky130_fd_pr__nfet_01v8 ad=0.616 pd=3.3 as=0.616 ps=3.3 w=1.08 l=0.18
R19 D<8> XDAC2.XC0.XRES1B.B sky130_fd_pr__res_generic_l1 w=0.38 l=0.3
X161 XA5.XA1.XA2.MN0.D XA6.XA1.XA5.MN2.G AVSS AVSS sky130_fd_pr__nfet_01v8 ad=0.616 pd=3.3 as=0.616 ps=3.3 w=1.08 l=0.18
X162 AVSS XA0.XA4.MN0.D XA0.XA6.MP0.G AVSS sky130_fd_pr__nfet_01v8 ad=0.616 pd=3.3 as=0.616 ps=3.3 w=1.08 l=0.18
X163 VREF XA1.XA4.MN0.G XA1.XA4.MN0.D AVDD sky130_fd_pr__pfet_01v8 ad=0.616 pd=3.3 as=0.616 ps=3.3 w=1.08 l=0.18
X164 XA4.XA10.MN0.D XA4.XA10.MN0.G AVSS AVSS sky130_fd_pr__nfet_01v8 ad=0.616 pd=3.3 as=0.616 ps=3.3 w=1.08 l=0.18
X165 XA7.XA6.MN0.D CK_SAMPLE AVSS AVSS sky130_fd_pr__nfet_01v8 ad=0.616 pd=3.3 as=0.616 ps=3.3 w=1.08 l=0.18
X166 AVSS XA1.XA3.MN0.G D<7> AVSS sky130_fd_pr__nfet_01v8 ad=0.616 pd=3.3 as=0.616 ps=3.3 w=1.08 l=0.18
X167 D<3> XA5.XA3.MN0.G AVSS AVSS sky130_fd_pr__nfet_01v8 ad=0.616 pd=3.3 as=0.616 ps=3.3 w=1.08 l=0.18
R20 m3_16472_1364# XB2.XCAPB1.XCAPB4.B sky130_fd_pr__res_generic_m3 w=0.44 l=0.36
X168 XB1.XA4.MN0.D XB1.XA4.MN0.G AVSS AVSS sky130_fd_pr__nfet_01v8 ad=0.616 pd=3.3 as=0.616 ps=3.3 w=1.08 l=0.18
X169 AVDD AVDD AVDD AVDD sky130_fd_pr__pfet_01v8 ad=0 pd=0 as=0.616 ps=3.3 w=1.08 l=0.18
X170 XA7.XA6.MP0.D XA7.XA6.MP0.G XA7.XA9.MN1.G AVDD sky130_fd_pr__pfet_01v8 ad=0.616 pd=3.3 as=0.616 ps=3.3 w=1.08 l=0.18
X171 AVSS XA0.XA4.MN0.G XA0.XA4.MN0.D AVSS sky130_fd_pr__nfet_01v8 ad=0.616 pd=3.3 as=0.616 ps=3.3 w=1.08 l=0.18
X172 VREF XA1.XA3.MN0.G D<7> AVDD sky130_fd_pr__pfet_01v8 ad=0.616 pd=3.3 as=0.616 ps=3.3 w=1.08 l=0.18
R21 XDAC1.XC64b<1>.XRES1A.B D<7> sky130_fd_pr__res_generic_l1 w=0.38 l=0.3
R22 m3_16472_4532# XB2.XCAPB1.XCAPB4.B sky130_fd_pr__res_generic_m3 w=0.44 l=0.36
X173 XA4.XA6.MN2.D CK_SAMPLE AVSS AVSS sky130_fd_pr__nfet_01v8 ad=0.616 pd=3.3 as=0.616 ps=3.3 w=1.08 l=0.18
X174 XA7.XA3.MN0.G XA7.XA1.XA5.MN2.D AVSS AVSS sky130_fd_pr__nfet_01v8 ad=0.616 pd=3.3 as=0.616 ps=3.3 w=1.08 l=0.18
X175 XA7.XA3.MN0.G XA7.XA1.XA5.MN2.D VREF AVDD sky130_fd_pr__pfet_01v8 ad=0.616 pd=3.3 as=0.616 ps=3.3 w=1.08 l=0.18
X176 XA5.XA1.XA5.MN1.D XA5.XA1.XA2.MN0.D XA5.XA1.XA5.MN0.D AVSS sky130_fd_pr__nfet_01v8 ad=0.616 pd=3.3 as=0.616 ps=3.3 w=1.08 l=0.18
X177 SARP XA0.XA11.MN1.G SAR_IN AVSS sky130_fd_pr__nfet_01v8 ad=0.616 pd=3.3 as=0.616 ps=3.3 w=1.08 l=0.18
X178 XA8.XA10.MN0.G XA8.XA7.MN0.D AVDD AVDD sky130_fd_pr__pfet_01v8 ad=0.616 pd=3.3 as=0.616 ps=3.3 w=1.08 l=0.18
X179 AVSS XA0.XA1.XA5.MN2.D D<8> AVSS sky130_fd_pr__nfet_01v8 ad=0.616 pd=3.3 as=0.616 ps=3.3 w=1.08 l=0.18
X180 AVSS XA8.XA1.XA5.MN2.D XA8.XA3.MN0.G AVSS sky130_fd_pr__nfet_01v8 ad=0.616 pd=3.3 as=0.616 ps=3.3 w=1.08 l=0.18
X181 AVSS AVSS AVSS AVSS sky130_fd_pr__nfet_01v8 ad=0.616 pd=3.3 as=0 ps=0 w=1.08 l=0.18
X182 XA6.XA1.XA5.MN2.G XA5.XA1.XA1.MN0.S AVSS AVSS sky130_fd_pr__nfet_01v8 ad=0.616 pd=3.3 as=0.616 ps=3.3 w=1.08 l=0.18
X183 XA1.XA9.MN1.G CK_SAMPLE XA1.XA6.MN2.D AVSS sky130_fd_pr__nfet_01v8 ad=0.616 pd=3.3 as=0.616 ps=3.3 w=1.08 l=0.18
X184 XA1.XA9.MN1.G D<7> XA1.XA6.MP2.D AVDD sky130_fd_pr__pfet_01v8 ad=0.616 pd=3.3 as=0.616 ps=3.3 w=1.08 l=0.18
X185 XA0.XA1.XA5.MN0.D XA20.XA3a.MN0.D AVSS AVSS sky130_fd_pr__nfet_01v8 ad=0.616 pd=3.3 as=0.616 ps=3.3 w=1.08 l=0.18
X186 XA7.XA11.MN1.G XA6.XA12.MN0.G AVSS AVSS sky130_fd_pr__nfet_01v8 ad=0.616 pd=3.3 as=0.616 ps=3.3 w=1.08 l=0.18
X187 XA4.XA10.MN0.G XA4.XA9.MN1.G XA4.XA9.MN0.D AVSS sky130_fd_pr__nfet_01v8 ad=0.616 pd=3.3 as=0.616 ps=3.3 w=1.08 l=0.18
X188 AVSS XA7.XA4.MN0.D XA7.XA6.MP0.G AVSS sky130_fd_pr__nfet_01v8 ad=0.616 pd=3.3 as=0.616 ps=3.3 w=1.08 l=0.18
X189 VREF XA7.XA4.MN0.D XA7.XA6.MP0.G AVDD sky130_fd_pr__pfet_01v8 ad=0.616 pd=3.3 as=0.616 ps=3.3 w=1.08 l=0.18
X190 AVSS XA5.XA4.MN0.G XA5.XA4.MN0.D AVSS sky130_fd_pr__nfet_01v8 ad=0.616 pd=3.3 as=0.616 ps=3.3 w=1.08 l=0.18
X191 SAR_IP XB1.XA3.MN0.S XB1.XCAPB1.XCAPB4.B AVSS sky130_fd_pr__nfet_01v8 ad=0.616 pd=3.3 as=0.616 ps=3.3 w=1.08 l=0.18
X192 XA8.XA1.XA4.MN1.D XA8.XA1.XA2.MN0.D XA8.XA1.XA4.MN0.D AVSS sky130_fd_pr__nfet_01v8 ad=0.616 pd=3.3 as=0.616 ps=3.3 w=1.08 l=0.18
X193 XA0.XA4.MN0.D XA0.XA4.MN0.G AVSS AVSS sky130_fd_pr__nfet_01v8 ad=0.616 pd=3.3 as=0.616 ps=3.3 w=1.08 l=0.18
X194 VREF XA4.XA1.XA5.MN2.D XA4.XA3.MN0.G AVDD sky130_fd_pr__pfet_01v8 ad=0.616 pd=3.3 as=0.616 ps=3.3 w=1.08 l=0.18
X195 AVSS XB1.XA4.MN0.G XB1.XA3.MN0.S AVSS sky130_fd_pr__nfet_01v8 ad=0.616 pd=3.3 as=0.616 ps=3.3 w=1.08 l=0.18
X196 AVSS CK_SAMPLE XA4.XA6.MN0.D AVSS sky130_fd_pr__nfet_01v8 ad=0.616 pd=3.3 as=0.616 ps=3.3 w=1.08 l=0.18
X197 AVSS XA7.XA4.MN0.G XA7.XA4.MN0.D AVSS sky130_fd_pr__nfet_01v8 ad=0.616 pd=3.3 as=0.616 ps=3.3 w=1.08 l=0.18
X198 D<0> XA8.XA3.MN0.G AVSS AVSS sky130_fd_pr__nfet_01v8 ad=0.616 pd=3.3 as=0.616 ps=3.3 w=1.08 l=0.18
R23 m3_n2104_2244# XB1.XCAPB1.XCAPB4.A sky130_fd_pr__res_generic_m3 w=0.44 l=0.36
X199 VREF XA7.XA4.MN0.G XA7.XA4.MN0.D AVDD sky130_fd_pr__pfet_01v8 ad=0.616 pd=3.3 as=0.616 ps=3.3 w=1.08 l=0.18
X200 AVSS XA5.XA3.MN0.G D<3> AVSS sky130_fd_pr__nfet_01v8 ad=0.616 pd=3.3 as=0.616 ps=3.3 w=1.08 l=0.18
X201 SARP XA0.XA11.MN1.G SAR_IN AVSS sky130_fd_pr__nfet_01v8 ad=0.616 pd=3.3 as=0.616 ps=3.3 w=1.08 l=0.18
X202 XA8.XA1.XA1.MN0.D XA8.XA1.XA5.MN2.G XA8.XA1.XA1.MN0.S AVSS sky130_fd_pr__nfet_01v8 ad=0.616 pd=3.3 as=0.616 ps=3.3 w=1.08 l=0.18
R24 XDAC1.XC0.XRES4.B XA0.XA6.MP2.G sky130_fd_pr__res_generic_l1 w=0.38 l=0.3
X203 XA6.XA1.XA5.MN2.D EN XA6.XA1.XA5.MP1.D AVDD sky130_fd_pr__pfet_01v8 ad=0.616 pd=3.3 as=0.616 ps=3.3 w=1.08 l=0.18
X204 XA4.XA1.XA4.MP1.D EN XA4.XA1.XA4.MP0.D AVDD sky130_fd_pr__pfet_01v8 ad=0.616 pd=3.3 as=0.616 ps=3.3 w=1.08 l=0.18
X205 AVSS XA7.XA1.XA5.MN2.D XA7.XA3.MN0.G AVSS sky130_fd_pr__nfet_01v8 ad=0.616 pd=3.3 as=0.616 ps=3.3 w=1.08 l=0.18
X206 XA8.XA3.MN0.G XA8.XA1.XA5.MN2.D AVSS AVSS sky130_fd_pr__nfet_01v8 ad=0.616 pd=3.3 as=0.616 ps=3.3 w=1.08 l=0.18
X207 AVSS XA0.XA12.MN0.D XA1.XA12.MN0.G AVSS sky130_fd_pr__nfet_01v8 ad=0.616 pd=3.3 as=0.616 ps=3.3 w=1.08 l=0.18
X208 VREF XA7.XA1.XA5.MN2.D XA7.XA3.MN0.G AVDD sky130_fd_pr__pfet_01v8 ad=0.616 pd=3.3 as=0.616 ps=3.3 w=1.08 l=0.18
R25 XDAC1.X16ab.XRES1A.B D<5> sky130_fd_pr__res_generic_l1 w=0.38 l=0.3
X209 XA1.XA12.MN0.G XA0.XA12.MN0.D XA1.XA11.MP0.D AVDD sky130_fd_pr__pfet_01v8 ad=0.616 pd=3.3 as=0.616 ps=3.3 w=1.08 l=0.18
X210 XA6.XA4.MN0.D XA6.XA4.MN0.G VREF AVDD sky130_fd_pr__pfet_01v8 ad=0.616 pd=3.3 as=0.616 ps=3.3 w=1.08 l=0.18
X211 D<4> XA4.XA3.MN0.G VREF AVDD sky130_fd_pr__pfet_01v8 ad=0.616 pd=3.3 as=0.616 ps=3.3 w=1.08 l=0.18
X212 XA6.XA1.XA2.MN0.D XA7.XA1.XA5.MN2.G AVDD AVDD sky130_fd_pr__pfet_01v8 ad=0.616 pd=3.3 as=0.616 ps=3.3 w=1.08 l=0.18
X213 AVDD EN XA4.XA1.XA1.MN0.S AVDD sky130_fd_pr__pfet_01v8 ad=0.616 pd=3.3 as=0.616 ps=3.3 w=1.08 l=0.18
X214 XA5.XA9.MN1.G CK_SAMPLE XA5.XA6.MN2.D AVSS sky130_fd_pr__nfet_01v8 ad=0.616 pd=3.3 as=0.616 ps=3.3 w=1.08 l=0.18
X215 XA8.XA1.XA4.MN0.D XA20.XA2a.MN0.D AVSS AVSS sky130_fd_pr__nfet_01v8 ad=0.616 pd=3.3 as=0.616 ps=3.3 w=1.08 l=0.18
X216 XA7.XA1.XA5.MN0.D XA20.XA3a.MN0.D AVSS AVSS sky130_fd_pr__nfet_01v8 ad=0.616 pd=3.3 as=0.616 ps=3.3 w=1.08 l=0.18
X217 XA1.XA7.MN0.D XA2.XA1.XA5.MN2.G AVSS AVSS sky130_fd_pr__nfet_01v8 ad=0.616 pd=3.3 as=0.616 ps=3.3 w=1.08 l=0.18
X218 XA7.XA1.XA5.MP0.D EN AVDD AVDD sky130_fd_pr__pfet_01v8 ad=0.616 pd=3.3 as=0.616 ps=3.3 w=1.08 l=0.18
X219 AVSS AVSS AVSS AVSS sky130_fd_pr__nfet_01v8 ad=0 pd=0 as=0.616 ps=3.3 w=1.08 l=0.18
X220 XA0.XA10.MN0.D XA0.XA10.MN0.G AVSS AVSS sky130_fd_pr__nfet_01v8 ad=0.616 pd=3.3 as=0.616 ps=3.3 w=1.08 l=0.18
X221 XA1.XA7.MN0.D XA2.XA1.XA5.MN2.G AVDD AVDD sky130_fd_pr__pfet_01v8 ad=0.616 pd=3.3 as=0.616 ps=3.3 w=1.08 l=0.18
X222 D<2> XA6.XA3.MN0.G VREF AVDD sky130_fd_pr__pfet_01v8 ad=0.616 pd=3.3 as=0.616 ps=3.3 w=1.08 l=0.18
X223 XA4.XA3.MN0.G XA4.XA1.XA5.MN2.D VREF AVDD sky130_fd_pr__pfet_01v8 ad=0.616 pd=3.3 as=0.616 ps=3.3 w=1.08 l=0.18
X224 XA7.XA4.MN0.D XA7.XA4.MN0.G AVSS AVSS sky130_fd_pr__nfet_01v8 ad=0.616 pd=3.3 as=0.616 ps=3.3 w=1.08 l=0.18
X225 XA7.XA4.MN0.D XA7.XA4.MN0.G VREF AVDD sky130_fd_pr__pfet_01v8 ad=0.616 pd=3.3 as=0.616 ps=3.3 w=1.08 l=0.18
R26 XA6.XA6.MP0.G XDAC2.XC32a<0>.XRES2.B sky130_fd_pr__res_generic_l1 w=0.38 l=0.3
X226 AVSS AVSS AVSS AVSS sky130_fd_pr__nfet_01v8 ad=0 pd=0 as=0.616 ps=3.3 w=1.08 l=0.18
X227 XA6.XA1.XA5.MP1.D EN XA6.XA1.XA5.MP0.D AVDD sky130_fd_pr__pfet_01v8 ad=0.616 pd=3.3 as=0.616 ps=3.3 w=1.08 l=0.18
X228 XA6.XA9.MN0.D XA6.XA7.MN0.D AVSS AVSS sky130_fd_pr__nfet_01v8 ad=0.616 pd=3.3 as=0.616 ps=3.3 w=1.08 l=0.18
X229 XA0.XA6.MN2.D CK_SAMPLE AVSS AVSS sky130_fd_pr__nfet_01v8 ad=0.616 pd=3.3 as=0.616 ps=3.3 w=1.08 l=0.18
R27 XDAC1.XC1.XRES1A.B XA0.XA4.MN0.D sky130_fd_pr__res_generic_l1 w=0.38 l=0.3
X230 XA4.XA1.XA4.MP0.D EN AVDD AVDD sky130_fd_pr__pfet_01v8 ad=0.616 pd=3.3 as=0.616 ps=3.3 w=1.08 l=0.18
X231 XA2.XA1.XA5.MN2.D XA2.XA1.XA5.MN2.G XA2.XA1.XA5.MN1.D AVSS sky130_fd_pr__nfet_01v8 ad=0.616 pd=3.3 as=0.616 ps=3.3 w=1.08 l=0.18
X232 XA1.XA12.MN0.G XA1.XA10.MN0.D AVSS AVSS sky130_fd_pr__nfet_01v8 ad=0.616 pd=3.3 as=0.616 ps=3.3 w=1.08 l=0.18
X233 XA1.XA11.MP0.D XA1.XA10.MN0.D AVDD AVDD sky130_fd_pr__pfet_01v8 ad=0.616 pd=3.3 as=0.616 ps=3.3 w=1.08 l=0.18
X234 AVDD XA6.XA1.XA1.MN0.S XA6.XA1.XA1.MP2.D AVDD sky130_fd_pr__pfet_01v8 ad=0.616 pd=3.3 as=0.616 ps=3.3 w=1.08 l=0.18
X235 XA20.XA3.MN0.D XA20.XA9.MN0.D AVSS AVSS sky130_fd_pr__nfet_01v8 ad=0.616 pd=3.3 as=0.616 ps=3.3 w=1.08 l=0.18
X236 AVDD XA20.XA9.MN0.D XA20.XA3.MN0.D AVDD sky130_fd_pr__pfet_01v8 ad=0.616 pd=3.3 as=0.616 ps=3.3 w=1.08 l=0.18
X237 XA2.XA4.MN0.D XA2.XA4.MN0.G AVSS AVSS sky130_fd_pr__nfet_01v8 ad=0.616 pd=3.3 as=0.616 ps=3.3 w=1.08 l=0.18
X238 AVDD AVDD AVDD AVDD sky130_fd_pr__pfet_01v8 ad=0 pd=0 as=0.616 ps=3.3 w=1.08 l=0.18
X239 XA2.XA1.XA2.MN0.D XA3.XA1.XA5.MN2.G AVSS AVSS sky130_fd_pr__nfet_01v8 ad=0.616 pd=3.3 as=0.616 ps=3.3 w=1.08 l=0.18
X240 SARP XB1.XA4.MN1.D SAR_IP AVSS sky130_fd_pr__nfet_01v8 ad=0.616 pd=3.3 as=0.616 ps=3.3 w=1.08 l=0.18
X241 AVSS XA5.XA11.MN1.G XA5.XA12.MN0.G AVSS sky130_fd_pr__nfet_01v8 ad=0.616 pd=3.3 as=0.616 ps=3.3 w=1.08 l=0.18
R28 D<8> XDAC2.XC128a<1>.XRES2.B sky130_fd_pr__res_generic_l1 w=0.38 l=0.3