* NGSPICE file created from SUNSAR_SAR9B_CV.ext - technology: sky130A

.subckt SUNSAR_RM1 A B 0
R0 A B sky130_fd_pr__res_generic_l1 w=0.34 l=0.34
.ends

.subckt SUNSAR_CAP32C_CV C1A C1B C2 C4 C8 C16 CTOP XRES1A/B 0 XRES1B/B AVSS
XXRES16 C16 XRES16/B 0 SUNSAR_RM1
XXRES2 C2 XRES2/B 0 SUNSAR_RM1
XXRES1A C1A XRES1A/B 0 SUNSAR_RM1
XXRES1B C1B XRES1B/B 0 SUNSAR_RM1
XXRES4 C4 XRES4/B 0 SUNSAR_RM1
XXRES8 C8 XRES8/B 0 SUNSAR_RM1
C0 XRES1A/B CTOP 3.637777f
C1 XRES2/B CTOP 7.010892f
C2 AVSS XRES16/B 10.460171f
C3 XRES8/B XRES16/B 0.1057f
C4 XRES8/B AVSS 7.113892f
C5 XRES4/B XRES16/B 0.063821f
C6 XRES4/B AVSS 5.459597f
C7 XRES1B/B XRES16/B 0.05157f
C8 XRES4/B XRES8/B 0.477132f
C9 XRES1B/B AVSS 4.270325f
C10 XRES16/B CTOP 55.2954f
C11 AVSS CTOP 11.093214f
C12 XRES1A/B XRES16/B 0.467299f
C13 XRES1A/B AVSS 4.264343f
C14 XRES2/B XRES16/B 0.470901f
C15 XRES8/B CTOP 27.705545f
C16 XRES2/B AVSS 4.595231f
C17 XRES1B/B XRES4/B 0.430616f
C18 XRES2/B XRES8/B 0.446669f
C19 XRES4/B CTOP 13.930625f
C20 XRES1B/B CTOP 3.637325f
C21 CTOP 0 7.97522f
C22 XRES16/B 0 4.882493f
C23 AVSS 0 16.502905f
C24 XRES8/B 0 4.160811f
C25 C8 0 0.111021f
C26 XRES4/B 0 3.74557f
C27 C4 0 0.111021f
C28 XRES1B/B 0 3.31589f
C29 C1B 0 0.12719f
C30 XRES1A/B 0 1.751233f
C31 C1A 0 0.12719f
C32 XRES2/B 0 3.488749f
C33 C2 0 0.111021f
C34 C16 0 0.111021f
.ends

.subckt SUNSAR_CDAC8_CV CP<10> CP<9> CP<8> CP<7> CP<6> CP<5> CP<4> CP<3> CP<2> CP<1>
+ CP<0> CTOP XC1/XRES1A/B CP<11> 0 AVSS
XXC128b<2> CP<10> CP<10> CP<10> CP<10> CP<10> CP<10> CTOP XC128b<2>/XRES1A/B 0 XC128b<2>/XRES1B/B
+ AVSS SUNSAR_CAP32C_CV
XX16ab CP<5> CP<5> CP<5> CP<5> CP<4> CP<6> CTOP X16ab/XRES1A/B 0 X16ab/XRES1B/B AVSS
+ SUNSAR_CAP32C_CV
XXC64a<0> CP<8> CP<8> CP<8> CP<8> CP<8> CP<8> CTOP XC64a<0>/XRES1A/B 0 XC64a<0>/XRES1B/B
+ AVSS SUNSAR_CAP32C_CV
XXC0 CP<11> CP<11> CP<11> CP<11> CP<11> CP<11> CTOP XC0/XRES1A/B 0 XC0/XRES1B/B AVSS
+ SUNSAR_CAP32C_CV
XXC1 CP<10> CP<10> CP<10> CP<10> CP<10> CP<10> CTOP XC1/XRES1A/B 0 XC1/XRES1B/B AVSS
+ SUNSAR_CAP32C_CV
XXC64b<1> CP<9> CP<9> CP<9> CP<9> CP<9> CP<9> CTOP XC64b<1>/XRES1A/B 0 XC64b<1>/XRES1B/B
+ AVSS SUNSAR_CAP32C_CV
XXC128a<1> CP<11> CP<11> CP<11> CP<11> CP<11> CP<11> CTOP XC128a<1>/XRES1A/B 0 XC128a<1>/XRES1B/B
+ AVSS SUNSAR_CAP32C_CV
XXC32a<0> AVSS CP<0> CP<1> CP<2> CP<3> CP<7> CTOP XC32a<0>/XRES1A/B 0 XC32a<0>/XRES1B/B
+ AVSS SUNSAR_CAP32C_CV
C0 XC64b<1>/XRES1B/B AVSS 0.094089f
C1 XC64b<1>/XRES1A/B X16ab/XRES1B/B 0.628951f
C2 CP<3> CP<4> 2.189413f
C3 CP<11> CP<5> 0.395544f
C4 CP<11> CP<6> 0.1009f
C5 CP<10> AVSS 0.759823f
C6 AVSS XC32a<0>/XRES1B/B 0.094089f
C7 CP<10> CP<7> 0.103863f
C8 CP<0> CP<1> 4.6508f
C9 XC64b<1>/XRES1A/B AVSS 0.094956f
C10 AVSS CTOP -4.036157f
C11 CP<0> CP<3> 0.089475f
C12 CP<0> CP<2> 0.276335f
C13 CP<9> AVSS 0.097224f
C14 AVSS XC128a<1>/XRES1B/B 0.094089f
C15 XC128b<2>/XRES1A/B XC128a<1>/XRES1B/B 0.628951f
C16 CP<6> CP<5> 3.024884f
C17 CP<7> CP<4> 0.082973f
C18 CP<10> CP<8> 2.855174f
C19 AVSS XC128a<1>/XRES1A/B 0.094956f
C20 CP<3> CP<5> 0.232224f
C21 CP<8> CTOP 0.112463f
C22 CP<11> AVSS 1.417505f
C23 CP<7> CP<0> 0.089189f
C24 CP<3> CP<1> 0.253055f
C25 CP<2> CP<1> 4.734883f
C26 XC1/XRES1B/B AVSS 0.094089f
C27 CP<9> CP<8> 1.80154f
C28 CP<2> CP<3> 4.987515f
C29 CP<8> CP<4> 0.086534f
C30 AVSS CP<5> 0.064356f
C31 CP<7> CP<5> 0.415707f
C32 XC0/XRES1A/B AVSS 0.094956f
C33 CP<7> CP<6> 2.585879f
C34 CP<10> CTOP 0.236926f
C35 CP<0> CP<8> 0.087696f
C36 CP<7> CP<1> 0.225261f
C37 CP<9> CP<10> 2.280731f
C38 CP<7> CP<3> 0.602343f
C39 AVSS XC32a<0>/XRES1A/B 0.094956f
C40 CP<7> CP<2> 0.087928f
C41 CP<9> CTOP 0.073803f
C42 CP<10> CP<4> 0.086632f
C43 XC64a<0>/XRES1A/B XC1/XRES1B/B 0.62895f
C44 CP<8> CP<5> 0.349544f
C45 XC128b<2>/XRES1B/B AVSS 0.094089f
C46 X16ab/XRES1B/B AVSS 0.094089f
C47 XC128a<1>/XRES1A/B XC32a<0>/XRES1B/B 0.62895f
C48 XC128b<2>/XRES1B/B X16ab/XRES1A/B 0.62895f
C49 CP<8> CP<6> 0.087273f
C50 CP<10> CP<0> 0.099397f
C51 CP<10> CP<11> 5.253161f
C52 CP<8> CP<1> 0.08638f
C53 CP<8> CP<3> 0.086451f
C54 XC128b<2>/XRES1A/B AVSS 0.094956f
C55 X16ab/XRES1A/B AVSS 0.094956f
C56 CP<8> CP<2> 0.086407f
C57 CP<11> CTOP 0.226487f
C58 XC64a<0>/XRES1B/B XC32a<0>/XRES1A/B 0.628951f
C59 XC64b<1>/XRES1B/B XC0/XRES1A/B 0.62895f
C60 CP<9> CP<11> 0.702233f
C61 CP<10> CP<5> 0.461689f
C62 CP<10> CP<6> 0.08676f
C63 CP<11> CP<4> 0.100006f
C64 CP<10> CP<1> 0.098065f
C65 CP<10> CP<3> 0.098862f
C66 CP<8> AVSS 0.141321f
C67 XC64a<0>/XRES1B/B AVSS 0.094089f
C68 CP<10> CP<2> 0.098672f
C69 CP<9> CP<5> 0.144727f
C70 CP<7> CP<8> 5.335522f
C71 CP<11> CP<0> 0.094714f
C72 CP<5> CP<4> 2.571549f
C73 CP<6> CP<4> 0.08351f
C74 XC64a<0>/XRES1A/B AVSS 0.094956f
C75 CP<10> 0 7.076044f
C76 CP<8> 0 4.111091f
C77 CP<7> 0 0.984698f
C78 CP<1> 0 1.553364f
C79 CP<3> 0 1.105384f
C80 CP<2> 0 0.987259f
C81 CP<0> 0 1.541327f
C82 CP<11> 0 5.570052f
C83 CP<5> 0 2.62574f
C84 CP<6> 0 0.780529f
C85 CP<4> 0 0.889614f
C86 CP<9> 0 2.620203f
C87 XC32a<0>/XRES16/B 0 4.882493f
C88 XC32a<0>/XRES8/B 0 4.160811f
C89 XC32a<0>/XRES4/B 0 3.74557f
C90 XC32a<0>/XRES1B/B 0 3.31589f
C91 XC32a<0>/XRES1A/B 0 1.751233f
C92 XC32a<0>/XRES2/B 0 3.488749f
C93 XC128a<1>/XRES16/B 0 4.882493f
C94 XC128a<1>/XRES8/B 0 4.160811f
C95 XC128a<1>/XRES4/B 0 3.74557f
C96 XC128a<1>/XRES1B/B 0 3.31589f
C97 XC128a<1>/XRES1A/B 0 1.751233f
C98 XC128a<1>/XRES2/B 0 3.488749f
C99 XC64b<1>/XRES16/B 0 4.882493f
C100 XC64b<1>/XRES8/B 0 4.160811f
C101 XC64b<1>/XRES4/B 0 3.74557f
C102 XC64b<1>/XRES1B/B 0 3.31589f
C103 XC64b<1>/XRES1A/B 0 1.751233f
C104 XC64b<1>/XRES2/B 0 3.488749f
C105 CTOP 0 37.11138f
C106 XC1/XRES16/B 0 4.882493f
C107 AVSS 0 0.100432p
C108 XC1/XRES8/B 0 4.160811f
C109 XC1/XRES4/B 0 3.74557f
C110 XC1/XRES1B/B 0 3.31589f
C111 XC1/XRES1A/B 0 1.751233f
C112 XC1/XRES2/B 0 3.488749f
C113 XC0/XRES16/B 0 4.882493f
C114 XC0/XRES8/B 0 4.160811f
C115 XC0/XRES4/B 0 3.74557f
C116 XC0/XRES1B/B 0 3.31589f
C117 XC0/XRES1A/B 0 1.751233f
C118 XC0/XRES2/B 0 3.488749f
C119 XC64a<0>/XRES16/B 0 4.882493f
C120 XC64a<0>/XRES8/B 0 4.160811f
C121 XC64a<0>/XRES4/B 0 3.74557f
C122 XC64a<0>/XRES1B/B 0 3.31589f
C123 XC64a<0>/XRES1A/B 0 1.751233f
C124 XC64a<0>/XRES2/B 0 3.488749f
C125 X16ab/XRES16/B 0 4.882493f
C126 X16ab/XRES8/B 0 4.160811f
C127 X16ab/XRES4/B 0 3.74557f
C128 X16ab/XRES1B/B 0 3.31589f
C129 X16ab/XRES1A/B 0 1.751233f
C130 X16ab/XRES2/B 0 3.488749f
C131 XC128b<2>/XRES16/B 0 4.882493f
C132 XC128b<2>/XRES8/B 0 4.160811f
C133 XC128b<2>/XRES4/B 0 3.74557f
C134 XC128b<2>/XRES1B/B 0 3.31589f
C135 XC128b<2>/XRES1A/B 0 1.751233f
C136 XC128b<2>/XRES2/B 0 3.488749f
.ends

.subckt SUNSAR_PCHDL D G S B 0 a_216_n18# a_216_334#
X0 D G S B sky130_fd_pr__pfet_01v8 ad=0.6156 pd=3.3 as=0.6156 ps=3.3 w=1.08 l=0.18
C0 a_216_n18# B 0.330729f
C1 a_216_334# B 0.331144f
C2 D S 0.050207f
C3 G B 0.341895f
C4 a_216_n18# G 0.067588f
C5 G a_216_334# 0.066018f
C6 G 0 0.073301f
C7 B 0 2.80584f
C8 a_216_n18# 0 0.091271f
C9 a_216_334# 0 0.091271f
.ends

.subckt SUNSAR_NCHDL D G S B a_324_n18# a_324_334#
X0 D G S B sky130_fd_pr__nfet_01v8 ad=0.6156 pd=3.3 as=0.6156 ps=3.3 w=1.08 l=0.18
C0 G a_324_n18# 0.066018f
C1 S D 0.050207f
C2 G a_324_334# 0.067588f
C3 S B 0.06638f
C4 G B 0.415197f
C5 D B 0.06638f
C6 a_324_n18# B 0.422415f
C7 a_324_334# B 0.422f
.ends

.subckt SUNSAR_NDX1_CV Y AVDD AVSS MN1/a_324_334# B A BULKP BULKN MP0/a_216_n18# MP1/a_216_334#
+ MN0/a_324_n18#
XMP0 Y A AVDD BULKP BULKN MP0/a_216_n18# B SUNSAR_PCHDL
XMP1 AVDD B Y BULKP BULKN A MP1/a_216_334# SUNSAR_PCHDL
XMN0 MN1/S A AVSS BULKN MN0/a_324_n18# B SUNSAR_NCHDL
XMN1 Y B MN1/S BULKN A MN1/a_324_334# SUNSAR_NCHDL
C0 Y AVDD 0.078555f
C1 BULKP AVDD 0.15616f
C2 A BULKP -0.246413f
C3 Y B 0.059989f
C4 AVDD AVSS 0.072347f
C5 B BULKP -0.247362f
C6 AVSS BULKN 0.399663f
C7 MN1/a_324_334# BULKN 0.422f
C8 AVDD BULKN 0.333494f
C9 MN0/a_324_n18# BULKN 0.422415f
C10 Y BULKN 0.252959f
C11 B BULKN 0.538314f
C12 BULKP BULKN 3.595964f
C13 A BULKN 0.539194f
C14 MP1/a_216_334# BULKN 0.091338f
C15 MP0/a_216_n18# BULKN 0.091338f
.ends

.subckt SUNSAR_NRX1_CV AVSS MN1/a_324_334# B BULKP BULKN MP0/a_216_n18# Y MP1/a_216_334#
+ AVDD A MN0/a_324_n18#
XMP0 MP1/S A AVDD BULKP BULKN MP0/a_216_n18# B SUNSAR_PCHDL
XMP1 Y B MP1/S BULKP BULKN A MP1/a_216_334# SUNSAR_PCHDL
XMN0 Y A AVSS BULKN MN0/a_324_n18# B SUNSAR_NCHDL
XMN1 AVSS B Y BULKN A MN1/a_324_334# SUNSAR_NCHDL
C0 AVDD AVSS 0.072522f
C1 BULKP Y 0.076318f
C2 AVDD BULKP 0.12362f
C3 BULKP A -0.246413f
C4 B Y 0.059989f
C5 B BULKP -0.247362f
C6 AVSS Y 0.114122f
C7 Y BULKN 0.247181f
C8 MN1/a_324_334# BULKN 0.422f
C9 AVSS BULKN 0.513412f
C10 MN0/a_324_n18# BULKN 0.422415f
C11 AVDD BULKN 0.264177f
C12 B BULKN 0.538314f
C13 BULKP BULKN 3.595964f
C14 MP1/a_216_334# BULKN 0.091338f
C15 A BULKN 0.539194f
C16 MP0/a_216_n18# BULKN 0.091338f
.ends

.subckt SUNSAR_IVX1_CV BULKP AVSS Y BULKN MP0/a_216_n18# MP0/a_216_334# AVDD A MN0/a_324_n18#
+ MN0/a_324_334#
XMP0 Y A AVDD BULKP BULKN MP0/a_216_n18# MP0/a_216_334# SUNSAR_PCHDL
XMN0 Y A AVSS BULKN MN0/a_324_n18# MN0/a_324_334# SUNSAR_NCHDL
C0 Y BULKP 0.061437f
C1 AVDD BULKP 0.104456f
C2 A BULKP 0.109299f
C3 AVSS AVDD 0.0519f
C4 AVSS BULKN 0.374279f
C5 MN0/a_324_n18# BULKN 0.422415f
C6 MN0/a_324_334# BULKN 0.422f
C7 AVDD BULKN 0.252941f
C8 A BULKN 0.631634f
C9 Y BULKN 0.268384f
C10 BULKP BULKN 2.80697f
C11 MP0/a_216_n18# BULKN 0.091338f
C12 MP0/a_216_334# BULKN 0.091338f
.ends

.subckt SUNSAR_TAPCELLB_CV AVSS MN1/a_324_n18# MN1/a_324_334# MP1/a_216_334# MP1/a_216_n18#
+ AVDD
XMP1 AVDD AVDD AVDD AVDD AVSS MP1/a_216_n18# MP1/a_216_334# SUNSAR_PCHDL
XMN1 AVSS AVSS AVSS AVSS MN1/a_324_n18# MN1/a_324_334# SUNSAR_NCHDL
C0 AVDD AVSS 0.105819f
C1 AVSS 0 1.05597f
C2 MN1/a_324_n18# 0 0.422415f
C3 MN1/a_324_334# 0 0.422f
C4 AVDD 0 3.141198f
C5 MP1/a_216_n18# 0 0.091271f
C6 MP1/a_216_334# 0 0.091271f
.ends

.subckt SUNSAR_SARKICKHX1_CV CI BULKP AVDD AVSS MP6_DMY/a_216_334# MN6/a_324_334#
+ MP0/S CKN MP0/a_216_n18# CK BULKN MN0/a_324_n18#
XMP1_DMY AVDD AVDD AVDD BULKP BULKN CKN AVDD SUNSAR_PCHDL
XMP4_DMY AVDD AVDD AVDD BULKP BULKN AVDD AVDD SUNSAR_PCHDL
XMP0 AVDD CKN MP0/S BULKP BULKN MP0/a_216_n18# AVDD SUNSAR_PCHDL
XMN0 MP0/S CKN AVSS BULKN MN0/a_324_n18# CI SUNSAR_NCHDL
XMN1 MP0/S CI MP0/S BULKN CKN CI SUNSAR_NCHDL
XMN2 MP0/S CI MP0/S BULKN CI CI SUNSAR_NCHDL
XMN3 MP0/S CI MP0/S BULKN CI CI SUNSAR_NCHDL
XMN4 MP0/S CI MP0/S BULKN CI CI SUNSAR_NCHDL
XMN6 AVDD CK MP0/S BULKN CI MN6/a_324_334# SUNSAR_NCHDL
XMN5 MP0/S CI MP0/S BULKN CI CK SUNSAR_NCHDL
XMP3_DMY AVDD AVDD AVDD BULKP BULKN AVDD AVDD SUNSAR_PCHDL
XMP6_DMY AVDD AVDD AVDD BULKP BULKN AVDD MP6_DMY/a_216_334# SUNSAR_PCHDL
XMP2_DMY AVDD AVDD AVDD BULKP BULKN AVDD AVDD SUNSAR_PCHDL
XMP5_DMY AVDD AVDD AVDD BULKP BULKN AVDD AVDD SUNSAR_PCHDL
C0 CKN MP0/S 0.058228f
C1 BULKP MP0/S 0.11694f
C2 AVDD MP0/S 0.103723f
C3 AVDD AVSS 0.185084f
C4 CKN BULKP -0.227092f
C5 AVDD BULKP -3.512327f
C6 MP0/S AVSS 0.214157f
C7 CI MP0/S -0.056784f
C8 CI AVSS 0.053147f
C9 BULKP BULKN 7.544365f
C10 MP6_DMY/a_216_334# BULKN 0.091338f
C11 AVDD BULKN 0.750023f
C12 CK BULKN 0.372036f
C13 MN6/a_324_334# BULKN 0.422f
C14 CI BULKN 1.791641f
C15 AVSS BULKN 0.562555f
C16 MN0/a_324_n18# BULKN 0.422415f
C17 MP0/S BULKN 0.370985f
C18 MP0/a_216_n18# BULKN 0.091338f
C19 CKN BULKN 0.56349f
.ends

.subckt SUNSAR_SARCMPHX1_CV CI CK VMR N2 AVDD AVSS MP6/a_216_334# MN6/a_324_334# BULKN
+ MP0/a_216_n18# BULKP CO MN0/a_324_n18# N1
XMP0 AVDD CK N1 BULKP BULKN MP0/a_216_n18# CK SUNSAR_PCHDL
XMP1 N2 CK AVDD BULKP BULKN CK AVDD SUNSAR_PCHDL
XMN0 N1 CK AVSS BULKN MN0/a_324_n18# CI SUNSAR_NCHDL
XMP2 AVDD AVDD N2 BULKP BULKN CK CK SUNSAR_PCHDL
XMN1 N2 CI N1 BULKN CK CI SUNSAR_NCHDL
XMP3 CO CK AVDD BULKP BULKN AVDD VMR SUNSAR_PCHDL
XMP4 AVDD VMR CO BULKP BULKN CK VMR SUNSAR_PCHDL
XMN2 N1 CI N2 BULKN CI CI SUNSAR_NCHDL
XMP5 CO VMR AVDD BULKP BULKN VMR VMR SUNSAR_PCHDL
XMN3 N2 CI N1 BULKN CI CI SUNSAR_NCHDL
XMN4 N1 CI N2 BULKN CI CI SUNSAR_NCHDL
XMP6 AVDD VMR CO BULKP BULKN VMR MP6/a_216_334# SUNSAR_PCHDL
XMN5 N2 CI N1 BULKN CI VMR SUNSAR_NCHDL
XMN6 CO VMR N2 BULKN CI MN6/a_324_334# SUNSAR_NCHDL
C0 N1 CI 0.175052f
C1 N2 CO 0.076147f
C2 BULKP CK -1.349649f
C3 BULKP CO 0.063159f
C4 N2 AVSS 0.099131f
C5 CO VMR 0.076819f
C6 AVDD CK 0.064755f
C7 AVDD CO 0.223072f
C8 BULKP N2 0.063625f
C9 AVDD AVSS 0.161411f
C10 N1 CK 0.072917f
C11 N1 AVSS 0.16219f
C12 BULKP VMR -1.552184f
C13 AVDD N2 0.080291f
C14 CI AVSS 0.05721f
C15 AVDD BULKP -0.437744f
C16 N1 N2 0.189549f
C17 AVDD VMR 0.051752f
C18 N1 BULKP 0.069686f
C19 N1 AVDD 0.058844f
C20 AVSS BULKN 0.540993f
C21 MN6/a_324_334# BULKN 0.422f
C22 VMR BULKN 0.606867f
C23 MP6/a_216_334# BULKN 0.091338f
C24 CI BULKN 1.771056f
C25 CK BULKN 0.626869f
C26 CO BULKN 0.213838f
C27 N2 BULKN 0.221339f
C28 BULKP BULKN 7.544966f
C29 MN0/a_324_n18# BULKN 0.422415f
C30 AVDD BULKN 0.618349f
C31 N1 BULKN 0.369132f
C32 MP0/a_216_n18# BULKN 0.091338f
.ends

.subckt SUNSAR_IVX4_CV AVDD AVSS MP3/a_216_334# MN3/a_324_334# BULKN BULKP MP0/a_216_n18#
+ Y A MN0/a_324_n18#
XMP0 Y A AVDD BULKP BULKN MP0/a_216_n18# A SUNSAR_PCHDL
XMP1 AVDD A Y BULKP BULKN A A SUNSAR_PCHDL
XMP2 Y A AVDD BULKP BULKN A A SUNSAR_PCHDL
XMN0 Y A AVSS BULKN MN0/a_324_n18# A SUNSAR_NCHDL
XMP3 AVDD A Y BULKP BULKN A MP3/a_216_334# SUNSAR_PCHDL
XMN1 AVSS A Y BULKN A A SUNSAR_NCHDL
XMN2 Y A AVSS BULKN A A SUNSAR_NCHDL
XMN3 AVSS A Y BULKN A MN3/a_324_334# SUNSAR_NCHDL
C0 Y A 0.147008f
C1 AVDD Y 0.147387f
C2 Y AVSS 0.177209f
C3 AVDD A 0.065686f
C4 AVSS A 0.065557f
C5 BULKP A -1.606473f
C6 AVDD AVSS 0.133497f
C7 BULKP AVDD 0.168357f
C8 A BULKN 2.062361f
C9 AVSS BULKN 0.629948f
C10 MN3/a_324_334# BULKN 0.422f
C11 MP3/a_216_334# BULKN 0.091338f
C12 Y BULKN 0.278637f
C13 MN0/a_324_n18# BULKN 0.422415f
C14 AVDD BULKN 0.379723f
C15 BULKP BULKN 5.176431f
C16 MP0/a_216_n18# BULKN 0.091338f
.ends

.subckt SUNSAR_SARCMPX1_CV CPI CNI CK_CMP XA12/Y XA3/CO XA3a/A CK_SAMPLE XA9/A CPO
+ DONE AVSS CNO AVDD
XXA10 XA9/A AVDD AVSS XA11/MN0/a_324_n18# XA12/Y XA11/Y AVDD AVSS XA9/MP0/a_216_334#
+ XA11/MP0/a_216_n18# XA9/MN0/a_324_334# SUNSAR_NDX1_CV
XXA11 AVSS XA12/MN0/a_324_n18# DONE AVDD AVSS XA11/MP0/a_216_n18# XA11/Y XA12/MP0/a_216_n18#
+ AVDD CK_SAMPLE XA11/MN0/a_324_n18# SUNSAR_NRX1_CV
XXA12 AVDD AVSS XA12/Y AVSS XA12/MP0/a_216_n18# XA13/MP1/a_216_n18# AVDD CK_CMP XA12/MN0/a_324_n18#
+ XA13/MN1/a_324_n18# SUNSAR_IVX1_CV
XXA13 AVSS XA13/MN1/a_324_n18# XA13/MN1/a_324_334# XA13/MP1/a_216_334# XA13/MP1/a_216_n18#
+ AVDD SUNSAR_TAPCELLB_CV
XXA0 AVSS XA0/MN1/a_324_n18# XA1/MN0/a_324_n18# XA1/MP0/a_216_n18# XA0/MP1/a_216_n18#
+ AVDD SUNSAR_TAPCELLB_CV
XXA1 CPI AVDD AVDD AVSS XA2/MP0/a_216_n18# XA2/MN0/a_324_n18# XA1/MP0/S XA9/A XA1/MP0/a_216_n18#
+ XA9/Y AVSS XA1/MN0/a_324_n18# SUNSAR_SARKICKHX1_CV
XXA2 CPI XA9/Y XA3/CO XA2/N2 AVDD AVSS XA2/MP6/a_216_334# XA2/MN6/a_324_334# AVSS
+ XA2/MP0/a_216_n18# AVDD XA3a/A XA2/MN0/a_324_n18# XA3/N1 SUNSAR_SARCMPHX1_CV
XXA3 CNI XA9/Y XA3a/A XA3/N2 AVDD AVSS XA4/MP0/a_216_n18# XA4/MN0/a_324_n18# AVSS
+ XA3/MP0/a_216_n18# AVDD XA3/CO XA3/MN0/a_324_n18# XA3/N1 SUNSAR_SARCMPHX1_CV
XXA4 CNI AVDD AVDD AVSS XA9/MP0/a_216_n18# XA9/MN0/a_324_n18# XA4/MP0/S XA9/A XA4/MP0/a_216_n18#
+ XA9/Y AVSS XA4/MN0/a_324_n18# SUNSAR_SARKICKHX1_CV
XXA3a AVDD AVSS XA3/MP0/a_216_n18# XA3/MN0/a_324_n18# AVSS AVDD XA3a/MP0/a_216_n18#
+ CNO XA3a/A XA3a/MN0/a_324_n18# SUNSAR_IVX4_CV
XXA2a AVDD AVSS XA3a/MP0/a_216_n18# XA3a/MN0/a_324_n18# AVSS AVDD XA2/MP6/a_216_334#
+ CPO XA3/CO XA2/MN6/a_324_334# SUNSAR_IVX4_CV
XXA9 AVDD AVSS XA9/Y AVSS XA9/MP0/a_216_n18# XA9/MP0/a_216_334# AVDD XA9/A XA9/MN0/a_324_n18#
+ XA9/MN0/a_324_334# SUNSAR_IVX1_CV
C0 XA12/Y AVDD 0.491363f
C1 XA9/Y CNI 0.382485f
C2 XA11/Y AVDD 0.055398f
C3 XA2/MP0/a_216_n18# AVDD -0.312114f
C4 XA11/Y XA9/A 0.268591f
C5 XA9/Y XA3/CO 0.24121f
C6 XA9/MP0/a_216_334# AVDD -0.311437f
C7 XA1/MP0/S AVDD 0.073206f
C8 XA3a/A XA3/CO 1.092423f
C9 XA3/N1 AVDD 0.19591f
C10 XA1/MP0/a_216_n18# AVDD -0.312114f
C11 XA3/N1 CNO 0.113873f
C12 XA2/MP6/a_216_334# AVDD -0.313651f
C13 XA4/MP0/a_216_n18# AVDD -0.312115f
C14 AVDD XA9/MP0/a_216_n18# -0.312114f
C15 XA3/N1 CPO 0.068565f
C16 CPI XA9/Y 0.27081f
C17 XA9/A AVDD 0.190387f
C18 XA9/Y XA3a/A 0.391167f
C19 AVDD XA3/MP0/a_216_n18# -0.313502f
C20 XA12/Y CK_SAMPLE 0.106092f
C21 CK_CMP DONE 0.058881f
C22 XA11/Y CK_SAMPLE 0.050093f
C23 XA3/N1 XA3/CO 0.289212f
C24 XA9/A CNI 0.362147f
C25 AVDD XA3/CO 1.186392f
C26 XA12/Y CK_CMP 0.05138f
C27 XA4/MP0/S XA3/CO 0.095491f
C28 XA9/A XA3/CO 0.141462f
C29 XA11/Y XA12/Y 0.130476f
C30 XA3/N1 XA9/Y 0.106124f
C31 XA3/N1 CPI 0.115376f
C32 XA9/Y AVDD 0.164538f
C33 XA3/N1 XA3a/A 0.309118f
C34 XA9/A XA9/Y 1.524979f
C35 AVDD XA3a/MP0/a_216_n18# -0.312395f
C36 XA9/A CPI 0.297822f
C37 AVDD XA3a/A 0.915439f
C38 XA12/MP0/a_216_n18# AVDD -0.312932f
C39 XA11/MP0/a_216_n18# AVDD -0.313072f
C40 XA9/A XA3a/A 0.136678f
C41 XA13/MP1/a_216_n18# AVDD -0.312114f
C42 XA3a/A CPO 0.108133f
C43 XA9/MN0/a_324_n18# AVSS 0.355024f
C44 XA3/CO AVSS 2.700815f
C45 CPO AVSS 0.178234f
C46 XA2/MN6/a_324_334# AVSS 0.353564f
C47 XA3a/A AVSS 2.52171f
C48 XA3/MN0/a_324_n18# AVSS 0.353564f
C49 CNO AVSS 0.179699f
C50 XA3a/MN0/a_324_n18# AVSS 0.353564f
C51 XA4/MN0/a_324_n18# AVSS 0.353572f
C52 XA4/MP0/S AVSS 0.414246f
C53 CNI AVSS 3.623488f
C54 XA3/N2 AVSS 0.246915f
C55 XA9/Y AVSS 4.611802f
C56 XA2/N2 AVSS 0.246915f
C57 XA2/MN0/a_324_n18# AVSS 0.353633f
C58 XA3/N1 AVSS 1.209705f
C59 AVDD AVSS 46.259968f
C60 CPI AVSS 3.747972f
C61 XA1/MN0/a_324_n18# AVSS 0.35614f
C62 XA1/MP0/S AVSS 0.422681f
C63 XA9/A AVSS 4.714037f
C64 XA0/MN1/a_324_n18# AVSS 0.422415f
C65 XA0/MP1/a_216_n18# AVSS 0.091271f
C66 XA13/MN1/a_324_334# AVSS 0.422f
C67 XA13/MP1/a_216_334# AVSS 0.091271f
C68 XA13/MN1/a_324_n18# AVSS 0.35614f
C69 CK_CMP AVSS 0.538443f
C70 XA12/MN0/a_324_n18# AVSS 0.356848f
C71 XA11/MN0/a_324_n18# AVSS 0.354112f
C72 DONE AVSS 0.474555f
C73 CK_SAMPLE AVSS 0.470113f
C74 XA9/MN0/a_324_334# AVSS 0.355615f
C75 XA12/Y AVSS 0.688598f
C76 XA11/Y AVSS 0.835691f
.ends

.subckt SUNSAR_NCHDLR D G S B a_324_n18# a_324_334#
X0 D G S B sky130_fd_pr__nfet_01v8 ad=0.6156 pd=3.3 as=0.6156 ps=3.3 w=1.08 l=0.18
C0 D S 0.050207f
C1 a_324_n18# G 0.066018f
C2 a_324_334# G 0.067588f
C3 S B 0.06638f
C4 G B 0.415197f
C5 D B 0.06638f
C6 a_324_n18# B 0.422415f
C7 a_324_334# B 0.422f
.ends

.subckt SUNSAR_CAP_BSSW_CV A B 0
R0 A m3_6948_120# sky130_fd_pr__res_generic_m3 w=0.4 l=0.36
R1 m3_252_280# B sky130_fd_pr__res_generic_m3 w=0.4 l=0.36
C0 A B 65.019196f
C1 m3_6948_120# B 0.172147f
C2 m3_6876_120# B 0.0666f
C3 m3_324_280# A 0.0666f
C4 m3_252_280# A 0.105547f
C5 B 0 13.2906f
C6 A 0 13.2887f
.ends

.subckt SUNSAR_CAP_BSSW5_CV B 0 A
XXCAPB0 A B 0 SUNSAR_CAP_BSSW_CV
XXCAPB1 A B 0 SUNSAR_CAP_BSSW_CV
XXCAPB2 A B 0 SUNSAR_CAP_BSSW_CV
XXCAPB3 A B 0 SUNSAR_CAP_BSSW_CV
XXCAPB4 A B 0 SUNSAR_CAP_BSSW_CV
C0 A B 54.00426f
C1 B 0 54.06679f
C2 A 0 55.079098f
.ends

.subckt SUNSAR_TIEH_CV Y BULKP AVDD AVSS BULKN MP0/a_216_n18# MP0/a_216_334# MP0/G
+ MN0/a_324_n18# MN0/a_324_334#
XMP0 Y MP0/G AVDD BULKP BULKN MP0/a_216_n18# MP0/a_216_334# SUNSAR_PCHDL
XMN0 MP0/G MP0/G AVSS BULKN MN0/a_324_n18# MN0/a_324_334# SUNSAR_NCHDL
C0 BULKP AVDD 0.107492f
C1 BULKP MP0/G 0.112786f
C2 AVDD AVSS 0.0519f
C3 MP0/G AVSS 0.058774f
C4 AVSS BULKN 0.374633f
C5 MN0/a_324_n18# BULKN 0.422415f
C6 MN0/a_324_334# BULKN 0.422f
C7 AVDD BULKN 0.255369f
C8 MP0/G BULKN 0.790179f
C9 BULKP BULKN 2.806854f
C10 MP0/a_216_n18# BULKN 0.091338f
C11 MP0/a_216_334# BULKN 0.091338f
.ends

.subckt SUNSAR_TIEL_CV BULKP AVDD AVSS BULKN Y MP0/a_216_n18# MP0/a_216_334# MP0/G
+ MN0/a_324_n18# MN0/a_324_334#
XMP0 MP0/G MP0/G AVDD BULKP BULKN MP0/a_216_n18# MP0/a_216_334# SUNSAR_PCHDL
XMN0 Y MP0/G AVSS BULKN MN0/a_324_n18# MN0/a_324_334# SUNSAR_NCHDL
C0 MP0/G AVDD 0.05882f
C1 BULKP AVDD 0.104999f
C2 BULKP MP0/G 0.161174f
C3 AVDD AVSS 0.0519f
C4 AVSS BULKN 0.377294f
C5 Y BULKN 0.05974f
C6 MN0/a_324_n18# BULKN 0.422415f
C7 MN0/a_324_334# BULKN 0.422f
C8 AVDD BULKN 0.255397f
C9 MP0/G BULKN 0.708387f
C10 BULKP BULKN 2.806659f
C11 MP0/a_216_n18# BULKN 0.091338f
C12 MP0/a_216_334# BULKN 0.091338f
.ends

.subckt SUNSAR_TGPD_CV AVDD AVSS MP2/B MN2/a_324_334# MP0/S B MP0/a_216_n18# A 0 C
+ MP2/a_216_334# MN0/a_324_n18#
XMP1_DMY B AVDD AVDD MP2/B 0 C C SUNSAR_PCHDL
XMP0 AVDD C MP0/S MP2/B 0 MP0/a_216_n18# AVDD SUNSAR_PCHDL
XMP2 A C B MP2/B 0 AVDD MP2/a_216_334# SUNSAR_PCHDL
XMN0 AVSS C MP0/S 0 MN0/a_324_n18# C SUNSAR_NCHDL
XMN1 B C AVSS 0 C MP0/S SUNSAR_NCHDL
XMN2 A MP0/S B 0 C MN2/a_324_334# SUNSAR_NCHDL
C0 MP2/B C -0.388363f
C1 C AVDD 0.071397f
C2 AVSS AVDD 0.092101f
C3 MP2/B MP0/S 0.064367f
C4 MP0/S C 0.148714f
C5 B A 0.108f
C6 MP0/S AVSS 0.096157f
C7 MP0/S B 0.056087f
C8 MP2/B AVDD -0.503371f
C9 AVDD 0 0.485958f
C10 C 0 0.995572f
C11 AVSS 0 0.359707f
C12 A 0 0.204323f
C13 MN2/a_324_334# 0 0.422f
C14 B 0 0.060014f
C15 MP0/S 0 0.747699f
C16 MN0/a_324_n18# 0 0.422415f
C17 MP2/a_216_334# 0 0.091338f
C18 MP2/B 0 4.387254f
C19 MP0/a_216_n18# 0 0.091338f
.ends

.subckt SUNSAR_SARBSSWCTRL_CV GN GNG TIE_H AVDD AVSS MN1/a_324_334# C BULKP BULKN
+ MP0/a_216_n18# MP1/a_216_334# MN0/a_324_n18#
XMP0 GNG C GN BULKP BULKN MP0/a_216_n18# GN SUNSAR_PCHDL
XMP1 AVDD GN GNG BULKP BULKN C MP1/a_216_334# SUNSAR_PCHDL
XMN0 MN1/S C AVSS BULKN MN0/a_324_n18# TIE_H SUNSAR_NCHDL
XMN1 GN TIE_H MN1/S BULKN C MN1/a_324_334# SUNSAR_NCHDL
C0 AVDD AVSS 0.060449f
C1 GN AVSS 0.083748f
C2 GN AVDD 0.072536f
C3 BULKP AVDD 0.120582f
C4 BULKP GNG -0.056171f
C5 BULKP GN -0.16538f
C6 C GN 0.105655f
C7 C BULKP -0.234337f
C8 TIE_H BULKN 0.37082f
C9 MN1/a_324_334# BULKN 0.422f
C10 AVSS BULKN 0.391756f
C11 MN0/a_324_n18# BULKN 0.422415f
C12 AVDD BULKN 0.269584f
C13 GN BULKN 0.410388f
C14 BULKP BULKN 3.595271f
C15 C BULKN 0.568156f
C16 MP1/a_216_334# BULKN 0.091338f
C17 MP0/a_216_n18# BULKN 0.091338f
.ends

.subckt SUNSAR_SARBSSW_CV VI CK CKN TIE_L VO1 VO2 XA3/B M4/G AVDD XA4/GNG AVSS
XM1 VI M4/G VO1 AVSS M1/a_324_n18# M2/a_324_n18# SUNSAR_NCHDLR
XM2 VI M4/G VO1 AVSS M2/a_324_n18# M3/a_324_n18# SUNSAR_NCHDLR
XM4 VI M4/G VO1 AVSS M4/a_324_n18# M5/a_324_n18# SUNSAR_NCHDLR
XM3 VI M4/G VO1 AVSS M3/a_324_n18# M4/a_324_n18# SUNSAR_NCHDLR
XM5 VI TIE_L VO2 AVSS M5/a_324_n18# M6/a_324_n18# SUNSAR_NCHDLR
XXCAPB1 XA3/B AVSS XA4/GNG SUNSAR_CAP_BSSW5_CV
XM6 VI TIE_L VO2 AVSS M6/a_324_n18# M7/a_324_n18# SUNSAR_NCHDLR
XM7 VI TIE_L VO2 AVSS M7/a_324_n18# M8/a_324_n18# SUNSAR_NCHDLR
XM8 VI TIE_L VO2 AVSS M8/a_324_n18# M8/a_324_334# SUNSAR_NCHDLR
XXA0 AVDD AVSS CKN AVSS XA0/MP0/a_216_n18# XA3/MP0/a_216_n18# AVDD CK XA0/MN0/a_324_n18#
+ XA3/MN0/a_324_n18# SUNSAR_IVX1_CV
XXA1 XA1/Y AVDD AVDD AVSS AVSS XA4/MP1/a_216_334# XA7/MP1/a_216_n18# XA1/MP0/G XA4/MN1/a_324_334#
+ XA7/MN1/a_324_n18# SUNSAR_TIEH_CV
XXA2 AVDD AVDD AVSS AVSS TIE_L XA7/MP1/a_216_334# XA5/MP1/a_216_n18# XA2/MP0/G XA7/MN1/a_324_334#
+ XA5/MN1/a_324_n18# SUNSAR_TIEL_CV
XXA3 AVDD AVSS AVDD XA4/MN0/a_324_n18# XA3/MP0/S XA3/B XA3/MP0/a_216_n18# VI AVSS
+ CKN XA4/MP0/a_216_n18# XA3/MN0/a_324_n18# SUNSAR_TGPD_CV
XXA5 AVSS XA5/MN1/a_324_n18# XA5/MN1/a_324_334# XA5/MP1/a_216_334# XA5/MP1/a_216_n18#
+ AVDD SUNSAR_TAPCELLB_CV
XXA4 M4/G XA4/GNG XA1/Y AVDD AVSS XA4/MN1/a_324_334# CKN AVDD AVSS XA4/MP0/a_216_n18#
+ XA4/MP1/a_216_334# XA4/MN0/a_324_n18# SUNSAR_SARBSSWCTRL_CV
XXA5b AVSS XA5b/MN1/a_324_n18# XA0/MN0/a_324_n18# XA0/MP0/a_216_n18# XA5b/MP1/a_216_n18#
+ AVDD SUNSAR_TAPCELLB_CV
XXA7 AVSS XA7/MN1/a_324_n18# XA7/MN1/a_324_334# XA7/MP1/a_216_334# XA7/MP1/a_216_n18#
+ AVDD SUNSAR_TAPCELLB_CV
C0 CKN AVDD 0.386132f
C1 AVDD XA0/MP0/a_216_n18# -0.310671f
C2 XA3/MP0/a_216_n18# AVDD -0.316045f
C3 XA7/MP1/a_216_n18# AVDD -0.314169f
C4 M4/G CKN 0.164954f
C5 VI CKN 0.158203f
C6 AVDD XA3/B 1.164377f
C7 XA4/GNG CKN 0.133189f
C8 AVDD XA1/Y 0.335551f
C9 VI XA3/MP0/S 0.083601f
C10 XA4/GNG XA3/B 0.074607f
C11 AVDD XA4/MP0/a_216_n18# -0.315133f
C12 CKN CK 0.081692f
C13 M4/G XA1/Y 0.191529f
C14 XA4/MP1/a_216_334# AVDD -0.311049f
C15 CKN XA3/B 0.220083f
C16 XA1/MP0/G XA1/Y 0.210055f
C17 CKN XA3/MP0/S 0.35416f
C18 XA2/MP0/G AVDD 0.154589f
C19 TIE_L VO2 0.067503f
C20 M4/G VO1 0.121685f
C21 XA4/GNG AVDD 2.419111f
C22 VI VO2 0.402189f
C23 VI VO1 0.51157f
C24 VI TIE_L 0.431984f
C25 VI M4/G 0.734411f
C26 CKN XA1/Y 0.083971f
C27 XA5/MP1/a_216_n18# AVDD -0.312114f
C28 XA7/MP1/a_216_334# AVDD -0.31194f
C29 TIE_L XA2/MP0/G 0.059272f
C30 M4/G XA4/GNG 0.159547f
C31 XA7/MN1/a_324_n18# AVSS 0.352854f
C32 XA5b/MN1/a_324_n18# AVSS 0.422415f
C33 XA0/MN0/a_324_n18# AVSS 0.355076f
C34 AVDD AVSS 16.186546f
C35 XA5b/MP1/a_216_n18# AVSS 0.091271f
C36 XA1/Y AVSS 0.964136f
C37 XA4/MN1/a_324_334# AVSS 0.352614f
C38 XA4/MN0/a_324_n18# AVSS 0.353766f
C39 XA5/MN1/a_324_334# AVSS 0.431299f
C40 XA5/MP1/a_216_334# AVSS 0.091432f
C41 XA3/B AVSS 54.425087f
C42 XA3/MP0/S AVSS 0.743072f
C43 XA7/MN1/a_324_334# AVSS 0.356024f
C44 XA5/MN1/a_324_n18# AVSS 0.354714f
C45 XA2/MP0/G AVSS 0.750734f
C46 XA1/MP0/G AVSS 0.875146f
C47 XA3/MN0/a_324_n18# AVSS 0.351448f
C48 CK AVSS 0.534205f
C49 CKN AVSS 2.229387f
C50 M8/a_324_n18# AVSS 0.354539f
C51 M8/a_324_334# AVSS 0.435553f
C52 M7/a_324_n18# AVSS 0.353892f
C53 VO2 AVSS 0.432698f
C54 TIE_L AVSS 2.998902f
C55 XA4/GNG AVSS 53.063145f
C56 M6/a_324_n18# AVSS 0.353868f
C57 M3/a_324_n18# AVSS 0.353838f
C58 M4/a_324_n18# AVSS 0.353838f
C59 M5/a_324_n18# AVSS 0.355864f
C60 M2/a_324_n18# AVSS 0.353838f
C61 VO1 AVSS 0.482601f
C62 M4/G AVSS 3.126676f
C63 VI AVSS 1.706923f
C64 M1/a_324_n18# AVSS 0.42462f
.ends

.subckt SUNSAR_SAREMX1_CV B EN ENO MP3/a_216_334# MN3/a_324_334# MP3/G A MN2/S BULKP
+ MP0/a_216_n18# AVSS BULKN AVDD RST_N MN0/a_324_n18#
XMP0 AVDD RST_N MP3/G BULKP BULKN MP0/a_216_n18# MP1/a_216_n18# SUNSAR_PCHDL
XMP1 MP2/S B ENO BULKP BULKN MP1/a_216_n18# MP2/a_216_n18# SUNSAR_PCHDL
XMP2 MP3/S A MP2/S BULKP BULKN MP2/a_216_n18# MP3/a_216_n18# SUNSAR_PCHDL
XMN0 MN2/S EN MP3/G BULKN MN0/a_324_n18# MN1/a_324_n18# SUNSAR_NCHDL
XMP3 AVDD MP3/G MP3/S BULKP BULKN MP3/a_216_n18# MP3/a_216_334# SUNSAR_PCHDL
XMN1 MN2/S B AVSS BULKN MN1/a_324_n18# MN2/a_324_n18# SUNSAR_NCHDL
XMN2 AVSS A MN2/S BULKN MN2/a_324_n18# MN3/a_324_n18# SUNSAR_NCHDL
XMN3 ENO MP3/G AVSS BULKN MN3/a_324_n18# MN3/a_324_334# SUNSAR_NCHDL
C0 BULKP AVDD 0.236533f
C1 BULKP A 0.108551f
C2 ENO AVSS 0.066248f
C3 MP3/S MP3/G 0.063428f
C4 BULKP B 0.113772f
C5 AVDD AVSS 0.1609f
C6 ENO MP3/G 0.133485f
C7 B A 0.058881f
C8 MP2/S MP3/G 0.064105f
C9 BULKP AVSS 0.059049f
C10 AVDD MP3/G 0.126944f
C11 BULKP MP3/a_216_n18# -0.311038f
C12 RST_N MP3/G 0.054556f
C13 BULKP MP3/G 0.480172f
C14 MP3/G A 0.105132f
C15 ENO MP3/S 0.064105f
C16 MP3/G AVSS 0.051789f
C17 MN2/S AVSS 0.209753f
C18 AVDD MP3/S 0.068807f
C19 MP2/S ENO 0.064105f
C20 BULKP MP2/a_216_n18# -0.311038f
C21 AVDD ENO 0.156546f
C22 AVDD MP2/S 0.055949f
C23 BULKP ENO 0.182005f
C24 BULKP MP1/a_216_n18# -0.311038f
C25 MN3/a_324_n18# BULKN 0.35253f
C26 MN3/a_324_334# BULKN 0.422f
C27 A BULKN 0.498033f
C28 MN2/a_324_n18# BULKN 0.352522f
C29 B BULKN 0.513991f
C30 MN1/a_324_n18# BULKN 0.352522f
C31 AVSS BULKN 0.703356f
C32 MP3/a_216_334# BULKN 0.091338f
C33 MP3/G BULKN 0.827536f
C34 EN BULKN 0.386445f
C35 MN2/S BULKN 0.207484f
C36 MN0/a_324_n18# BULKN 0.422415f
C37 ENO BULKN 0.246284f
C38 AVDD BULKN 0.397419f
C39 BULKP BULKN 7.539519f
C40 MP0/a_216_n18# BULKN 0.091338f
.ends

.subckt SUNSAR_SARLTX1_CV RST_N EN LCK_N AVSS MN2/a_324_334# A BULKP MP0/a_216_n18#
+ CHL BULKN AVDD MP2/a_216_334# MN0/a_324_n18#
XMP0 MP1/S RST_N AVDD BULKP BULKN MP0/a_216_n18# RST_N SUNSAR_PCHDL
XMP1 MP2/S RST_N MP1/S BULKP BULKN RST_N RST_N SUNSAR_PCHDL
XMN0 MN1/S A AVSS BULKN MN0/a_324_n18# LCK_N SUNSAR_NCHDL
XMP2 CHL RST_N MP2/S BULKP BULKN RST_N MP2/a_216_334# SUNSAR_PCHDL
XMN1 MN2/S LCK_N MN1/S BULKN A EN SUNSAR_NCHDL
XMN2 CHL EN MN2/S BULKN LCK_N MN2/a_324_334# SUNSAR_NCHDL
C0 AVDD AVSS 0.090662f
C1 AVDD BULKP 0.145188f
C2 MP1/S BULKP -0.050867f
C3 BULKP MP2/S -0.050867f
C4 BULKP RST_N -1.319845f
C5 BULKP CHL 0.074842f
C6 EN BULKN 0.372036f
C7 MN2/a_324_334# BULKN 0.422f
C8 LCK_N BULKN 0.335836f
C9 AVSS BULKN 0.43526f
C10 RST_N BULKN 0.123012f
C11 CHL BULKN 0.260933f
C12 BULKP BULKN 4.387078f
C13 MP2/a_216_334# BULKN 0.091338f
C14 A BULKN 0.372036f
C15 MN0/a_324_n18# BULKN 0.422415f
C16 AVDD BULKN 0.283558f
C17 MP0/a_216_n18# BULKN 0.091338f
.ends

.subckt SUNSAR_SARMRYX1_CV CMP_OP CHL_OP CHL_ON XA1/MP3/G RST_N XA5/MP2/a_216_334#
+ ENO XA5/MN2/a_324_334# XA1/MN2/S CMP_ON AVDD AVSS XA2/Y EN
XXA0 AVSS XA0/MN1/a_324_n18# XA1/MN0/a_324_n18# XA1/MP0/a_216_n18# XA0/MP1/a_216_n18#
+ AVDD SUNSAR_TAPCELLB_CV
XXA1 CMP_ON EN ENO XA2/MP0/a_216_n18# XA2/MN0/a_324_n18# XA1/MP3/G CMP_OP XA1/MN2/S
+ AVDD XA1/MP0/a_216_n18# AVSS AVSS AVDD RST_N XA1/MN0/a_324_n18# SUNSAR_SAREMX1_CV
XXA2 AVDD AVSS XA2/Y AVSS XA2/MP0/a_216_n18# XA4/MP0/a_216_n18# AVDD ENO XA2/MN0/a_324_n18#
+ XA4/MN0/a_324_n18# SUNSAR_IVX1_CV
XXA4 RST_N EN XA2/Y AVSS XA5/MN0/a_324_n18# CMP_OP AVDD XA4/MP0/a_216_n18# CHL_OP
+ AVSS AVDD XA5/MP0/a_216_n18# XA4/MN0/a_324_n18# SUNSAR_SARLTX1_CV
XXA5 RST_N EN XA2/Y AVSS XA5/MN2/a_324_334# CMP_ON AVDD XA5/MP0/a_216_n18# CHL_ON
+ AVSS AVDD XA5/MP2/a_216_334# XA5/MN0/a_324_n18# SUNSAR_SARLTX1_CV
C0 AVDD XA2/MP0/a_216_n18# -0.314158f
C1 EN CMP_OP 0.196887f
C2 AVDD XA2/Y 0.086633f
C3 XA2/Y CMP_OP 0.183507f
C4 EN CMP_ON 0.54292f
C5 ENO CMP_OP 0.15365f
C6 XA2/Y CMP_ON 0.130187f
C7 XA2/Y EN 0.114038f
C8 ENO XA1/MP3/G 0.074928f
C9 AVDD RST_N 1.197074f
C10 AVDD CHL_OP 0.06932f
C11 ENO XA2/Y 0.081815f
C12 XA1/MP0/a_216_n18# AVDD -0.312114f
C13 CMP_ON CMP_OP 0.054599f
C14 AVDD XA4/MP0/a_216_n18# -0.314158f
C15 XA1/MP3/G RST_N 0.080501f
C16 AVDD XA5/MP0/a_216_n18# -0.314158f
C17 XA5/MN2/a_324_334# AVSS 0.422f
C18 CHL_ON AVSS 0.232377f
C19 XA5/MP2/a_216_334# AVSS 0.091271f
C20 XA5/MN0/a_324_n18# AVSS 0.353572f
C21 RST_N AVSS 0.223454f
C22 CHL_OP AVSS 0.170116f
C23 XA4/MN0/a_324_n18# AVSS 0.353572f
C24 XA2/MN0/a_324_n18# AVSS 0.353587f
C25 XA2/Y AVSS 1.192111f
C26 XA1/MN3/a_324_n18# AVSS 0.352733f
C27 CMP_OP AVSS 1.304227f
C28 XA1/MN2/a_324_n18# AVSS 0.353381f
C29 CMP_ON AVSS 1.822234f
C30 XA1/MN1/a_324_n18# AVSS 0.358f
C31 XA1/MP3/G AVSS 0.88567f
C32 EN AVSS 2.426762f
C33 XA1/MN2/S AVSS 0.199983f
C34 XA1/MN0/a_324_n18# AVSS 0.35614f
C35 ENO AVSS 0.833836f
C36 XA0/MN1/a_324_n18# AVSS 0.422415f
C37 AVDD AVSS 17.172226f
C38 XA0/MP1/a_216_n18# AVSS 0.091271f
.ends

.subckt SUNSAR_SWX4_CV MP3/a_216_334# MN3/a_324_334# BULKP MP0/a_216_n18# Y BULKN
+ AVSS A MN0/a_324_n18# VREF