* NGSPICE file created from SUNSAR_SAR9B_CV.ext - technology: sky130A

* Replacing the lpe port list (../tech/scripts/fixlpe)
.subckt SUNSAR_SAR9B_CV SAR_IP SAR_IN SARN SARP DONE D<8> D<7> D<6> D<5> D<4> D<3> D<2> D<1> D<0> EN CK_SAMPLE CK_SAMPLE_BSSW
+ VREF AVDD AVSS
*.subckt SUNSAR_SAR9B_CV SAR_IP SAR_IN SARN SARP DONE D<8> D<7> D<6> D<5> D<4>
*+ D<3> D<2> D<1> D<0> EN CK_SAMPLE CK_SAMPLE_BSSW VREF AVDD AVSS
X0 XA20.XA10.A CK_SAMPLE AVSS AVSS sky130_fd_pr__nfet_01v8 ad=0.378 pd=1.78 as=0.6156 ps=3.3 w=1.08 l=0.18
X1 XA20.XA11.MP1.S CK_SAMPLE AVDD AVDD sky130_fd_pr__pfet_01v8 ad=0.378 pd=1.78 as=0.6156 ps=3.3 w=1.08 l=0.18
X2 VREF XA4.XA1.CHL_OP XA4.CP0 AVDD sky130_fd_pr__pfet_01v8 ad=0.6156 pd=3.3 as=0.378 ps=1.78 w=1.08 l=0.18
X3 XA6.XA6.MP3.S D<2> AVDD AVDD sky130_fd_pr__pfet_01v8 ad=0.378 pd=1.78 as=0.378 ps=1.78 w=1.08 l=0.18
X4 SAR_IN XB2.CKN XB2.XA3.B AVDD sky130_fd_pr__pfet_01v8 ad=0.6156 pd=3.3 as=0.378 ps=1.78 w=1.08 l=0.18
X5 XA7.XA10.A XA7.XA6.Y XA7.XA9.MN1.S AVSS sky130_fd_pr__nfet_01v8 ad=0.6156 pd=3.3 as=0.378 ps=1.78 w=1.08 l=0.18
R0 XDAC1.XC128a<1>.XRES2.B XA0.CP1 sky130_fd_pr__res_generic_l1 w=0.34 l=0.34
R1 XDAC1.XC1.XRES4.B XA0.CP0 sky130_fd_pr__res_generic_l1 w=0.34 l=0.34
X6 AVDD XA7.XA6.Y XA7.XA10.A AVDD sky130_fd_pr__pfet_01v8 ad=0.6156 pd=3.3 as=0.378 ps=1.78 w=1.08 l=0.18
X7 XA20.XA4.MP0.S SARN XA20.XA4.MP0.S AVSS sky130_fd_pr__nfet_01v8 ad=0.378 pd=1.78 as=4.536 ps=21.36 w=1.08 l=0.18
X8 AVDD AVDD AVDD AVDD sky130_fd_pr__pfet_01v8 ad=0.378 pd=1.78 as=134.8596 ps=707.66 w=1.08 l=0.18
X9 XA6.CP0 XA6.XA1.CHL_OP VREF AVDD sky130_fd_pr__pfet_01v8 ad=0.378 pd=1.78 as=0.6156 ps=3.3 w=1.08 l=0.18
R2 XDAC1.XC64a<0>.XRES1A.B XA1.CP0 sky130_fd_pr__res_generic_l1 w=0.34 l=0.34
X10 XA2.XA1.XA5.MP2.S EN XA2.XA1.XA5.MP1.S AVDD sky130_fd_pr__pfet_01v8 ad=0.378 pd=1.78 as=0.378 ps=1.78 w=1.08 l=0.18
X11 XA0.CMP_ON XA20.XA2.CO AVSS AVSS sky130_fd_pr__nfet_01v8 ad=0.378 pd=1.78 as=0.378 ps=1.78 w=1.08 l=0.18
R3 XDAC1.XC32a<0>.XRES1B.B D<1> sky130_fd_pr__res_generic_l1 w=0.34 l=0.34
X12 SAR_IN XB2.XA3.MP0.S XB2.XA3.B AVSS sky130_fd_pr__nfet_01v8 ad=0.6156 pd=3.3 as=0.378 ps=1.78 w=1.08 l=0.18
X13 XA6.XA10.Y XA6.XA10.A AVDD AVDD sky130_fd_pr__pfet_01v8 ad=0.6156 pd=3.3 as=0.6156 ps=3.3 w=1.08 l=0.18
X14 XA0.CMP_ON XA20.XA2.CO AVDD AVDD sky130_fd_pr__pfet_01v8 ad=0.378 pd=1.78 as=0.378 ps=1.78 w=1.08 l=0.18
X15 XA6.XA2.A EN XA6.XA1.XA5.MP2.S AVDD sky130_fd_pr__pfet_01v8 ad=0.6156 pd=3.3 as=0.378 ps=1.78 w=1.08 l=0.18
X16 XA2.XA11.Y XA2.XA10.Y AVSS AVSS sky130_fd_pr__nfet_01v8 ad=0.378 pd=1.78 as=0.6156 ps=3.3 w=1.08 l=0.18
X17 AVSS XA5.CEO XA6.XA11.Y AVSS sky130_fd_pr__nfet_01v8 ad=0.6156 pd=3.3 as=0.378 ps=1.78 w=1.08 l=0.18
X18 XA6.XA6.MP1.S XA6.CN0 XA6.XA6.Y AVDD sky130_fd_pr__pfet_01v8 ad=0.378 pd=1.78 as=0.6156 ps=3.3 w=1.08 l=0.18
X19 XA20.XA2.N2 SARP XA20.XA2.N1 AVSS sky130_fd_pr__nfet_01v8 ad=0.378 pd=1.78 as=0.378 ps=1.78 w=1.08 l=0.18
X20 D<0> XA8.CN1 VREF AVDD sky130_fd_pr__pfet_01v8 ad=0.378 pd=1.78 as=0.378 ps=1.78 w=1.08 l=0.18
X21 XA6.XA1.XA1.MP3.S XA0.CMP_OP XA6.XA1.XA1.MP2.S AVDD sky130_fd_pr__pfet_01v8 ad=0.6156 pd=3.3 as=0.6156 ps=3.3 w=1.08 l=0.18
X22 XA20.XA2.CO XA20.XA1.CK AVDD AVDD sky130_fd_pr__pfet_01v8 ad=0.378 pd=1.78 as=0.378 ps=1.78 w=1.08 l=0.18
X23 XA2.XA6.MN3.S CK_SAMPLE AVSS AVSS sky130_fd_pr__nfet_01v8 ad=0.378 pd=1.78 as=0.378 ps=1.78 w=1.08 l=0.18
R4 XDAC1.X16ab.XRES2.B D<5> sky130_fd_pr__res_generic_l1 w=0.34 l=0.34
R5 XDAC1.XC64b<1>.XRES2.B D<7> sky130_fd_pr__res_generic_l1 w=0.34 l=0.34
X24 XA6.XA6.Y CK_SAMPLE XA6.XA6.MN3.S AVSS sky130_fd_pr__nfet_01v8 ad=0.6156 pd=3.3 as=0.378 ps=1.78 w=1.08 l=0.18
X25 VREF XA6.CN1 D<2> AVDD sky130_fd_pr__pfet_01v8 ad=0.6156 pd=3.3 as=0.378 ps=1.78 w=1.08 l=0.18
X26 XA2.CP0 XA2.XA1.CHL_OP AVSS AVSS sky130_fd_pr__nfet_01v8 ad=0.378 pd=1.78 as=0.6156 ps=3.3 w=1.08 l=0.18
X27 XA1.XA9.MN1.S XA1.XA8.A AVSS AVSS sky130_fd_pr__nfet_01v8 ad=0.378 pd=1.78 as=0.6156 ps=3.3 w=1.08 l=0.18
R6 XA0.CN0 XDAC2.XC1.XRES1B.B sky130_fd_pr__res_generic_l1 w=0.34 l=0.34
X28 XA1.XA10.A XA1.XA8.A AVDD AVDD sky130_fd_pr__pfet_01v8 ad=0.378 pd=1.78 as=0.6156 ps=3.3 w=1.08 l=0.18
X29 XA20.XA4.MP0.S SARN XA20.XA4.MP0.S AVSS sky130_fd_pr__nfet_01v8 ad=0.378 pd=1.78 as=0 ps=0 w=1.08 l=0.18
X30 XA0.CMP_ON XA20.XA2.CO AVDD AVDD sky130_fd_pr__pfet_01v8 ad=0.378 pd=1.78 as=0.6156 ps=3.3 w=1.08 l=0.18
X31 XA0.CMP_ON XA20.XA2.CO AVSS AVSS sky130_fd_pr__nfet_01v8 ad=0.378 pd=1.78 as=0.6156 ps=3.3 w=1.08 l=0.18
X32 AVDD AVDD AVDD AVDD sky130_fd_pr__pfet_01v8 ad=0.378 pd=1.78 as=0 ps=0 w=1.08 l=0.18
X33 AVSS XA6.XA1.CHL_OP XA6.CP0 AVSS sky130_fd_pr__nfet_01v8 ad=0.378 pd=1.78 as=0.378 ps=1.78 w=1.08 l=0.18
X34 AVSS AVSS AVSS AVSS sky130_fd_pr__nfet_01v8 ad=0.6156 pd=3.3 as=203.8716 ps=1.06874k w=1.08 l=0.18
X35 XA6.XA1.XA5.MP1.S EN AVDD AVDD sky130_fd_pr__pfet_01v8 ad=0.378 pd=1.78 as=0.6156 ps=3.3 w=1.08 l=0.18
X36 XA2.XA10.Y XA2.XA10.A AVSS AVSS sky130_fd_pr__nfet_01v8 ad=0.6156 pd=3.3 as=0.6156 ps=3.3 w=1.08 l=0.18
X37 XA2.XA2.A XA1.ENO XA2.XA1.XA5.MN2.S AVSS sky130_fd_pr__nfet_01v8 ad=0.6156 pd=3.3 as=0.378 ps=1.78 w=1.08 l=0.18
X38 XA1.CN0 XA1.CP0 AVSS AVSS sky130_fd_pr__nfet_01v8 ad=0.378 pd=1.78 as=0.378 ps=1.78 w=1.08 l=0.18
R7 XA1.CN0 XDAC2.XC64a<0>.XRES16.B sky130_fd_pr__res_generic_l1 w=0.34 l=0.34
X39 XA20.XA2.N2 SARP XA20.XA2.N1 AVSS sky130_fd_pr__nfet_01v8 ad=0.378 pd=1.78 as=0.378 ps=1.78 w=1.08 l=0.18
X40 XA1.CN0 XA1.CP0 VREF AVDD sky130_fd_pr__pfet_01v8 ad=0.378 pd=1.78 as=0.378 ps=1.78 w=1.08 l=0.18
X41 XA20.XA2.N2 XA20.XA1.CK AVDD AVDD sky130_fd_pr__pfet_01v8 ad=0.378 pd=1.78 as=0.378 ps=1.78 w=1.08 l=0.18
X42 XA2.XA6.MN1.S CK_SAMPLE AVSS AVSS sky130_fd_pr__nfet_01v8 ad=0.378 pd=1.78 as=0.6156 ps=3.3 w=1.08 l=0.18
X43 AVSS XA5.CP0 XA5.CN0 AVSS sky130_fd_pr__nfet_01v8 ad=0.6156 pd=3.3 as=0.378 ps=1.78 w=1.08 l=0.18
X44 VREF XA5.CP0 XA5.CN0 AVDD sky130_fd_pr__pfet_01v8 ad=0.6156 pd=3.3 as=0.378 ps=1.78 w=1.08 l=0.18
X45 AVSS XA0.CMP_OP XA2.XA1.XA1.MN2.S AVSS sky130_fd_pr__nfet_01v8 ad=0.6156 pd=3.3 as=0.6156 ps=3.3 w=1.08 l=0.18
X46 D<7> XA1.CN1 AVSS AVSS sky130_fd_pr__nfet_01v8 ad=0.378 pd=1.78 as=0.6156 ps=3.3 w=1.08 l=0.18
X47 AVDD AVDD AVDD AVDD sky130_fd_pr__pfet_01v8 ad=0.6156 pd=3.3 as=0 ps=0 w=1.08 l=0.18
X48 AVSS CK_SAMPLE XA6.XA6.MN1.S AVSS sky130_fd_pr__nfet_01v8 ad=0.378 pd=1.78 as=0.378 ps=1.78 w=1.08 l=0.18
X49 D<7> XA1.CN1 VREF AVDD sky130_fd_pr__pfet_01v8 ad=0.378 pd=1.78 as=0.6156 ps=3.3 w=1.08 l=0.18
X50 AVSS XA2.CN1 D<6> AVSS sky130_fd_pr__nfet_01v8 ad=0.6156 pd=3.3 as=0.378 ps=1.78 w=1.08 l=0.18
X51 AVSS XA5.CN1 D<3> AVSS sky130_fd_pr__nfet_01v8 ad=0.378 pd=1.78 as=0.378 ps=1.78 w=1.08 l=0.18
R8 m3_830_1080# XB1.XA4.GNG sky130_fd_pr__res_generic_m3 w=0.4 l=0.36
X52 VREF XA5.CN1 D<3> AVDD sky130_fd_pr__pfet_01v8 ad=0.378 pd=1.78 as=0.378 ps=1.78 w=1.08 l=0.18
X53 AVSS XA3.XA2.A XA3.CN1 AVSS sky130_fd_pr__nfet_01v8 ad=0.378 pd=1.78 as=0.378 ps=1.78 w=1.08 l=0.18
R9 XDAC1.XC32a<0>.XRES2.B D<2> sky130_fd_pr__res_generic_l1 w=0.34 l=0.34
X54 XA20.XA1.MP0.S SARP XA20.XA1.MP0.S AVSS sky130_fd_pr__nfet_01v8 ad=0.378 pd=1.78 as=4.536 ps=21.36 w=1.08 l=0.18
X55 AVDD AVDD AVDD AVDD sky130_fd_pr__pfet_01v8 ad=0.378 pd=1.78 as=0 ps=0 w=1.08 l=0.18
X56 XA1.XA1.XA4.MN2.S XA1.XA1.XA4.LCK_N XA1.XA1.XA4.MN1.S AVSS sky130_fd_pr__nfet_01v8 ad=0.378 pd=1.78 as=0.378 ps=1.78 w=1.08 l=0.18
X57 AVSS XA0.XA2.A D<8> AVSS sky130_fd_pr__nfet_01v8 ad=0.378 pd=1.78 as=0.378 ps=1.78 w=1.08 l=0.18
X58 VREF XA3.XA2.A XA3.CN1 AVDD sky130_fd_pr__pfet_01v8 ad=0.378 pd=1.78 as=0.378 ps=1.78 w=1.08 l=0.18
X59 XA1.XA1.XA4.MP2.S EN XA1.XA1.XA4.MP1.S AVDD sky130_fd_pr__pfet_01v8 ad=0.378 pd=1.78 as=0.378 ps=1.78 w=1.08 l=0.18
X60 XA0.CP1 D<8> VREF AVDD sky130_fd_pr__pfet_01v8 ad=0.378 pd=1.78 as=0.378 ps=1.78 w=1.08 l=0.18
X61 AVSS AVSS AVSS AVSS sky130_fd_pr__nfet_01v8 ad=0.6156 pd=3.3 as=0 ps=0 w=1.08 l=0.18
X62 XA2.XA1.XA5.MN1.S XA0.CMP_ON AVSS AVSS sky130_fd_pr__nfet_01v8 ad=0.378 pd=1.78 as=0.6156 ps=3.3 w=1.08 l=0.18
X63 XA8.XA1.XA5.MP2.S EN XA8.XA1.XA5.MP1.S AVDD sky130_fd_pr__pfet_01v8 ad=0.378 pd=1.78 as=0.378 ps=1.78 w=1.08 l=0.18
X64 AVDD AVDD AVDD AVDD sky130_fd_pr__pfet_01v8 ad=0.6156 pd=3.3 as=0 ps=0 w=1.08 l=0.18
X65 AVSS AVSS AVSS AVSS sky130_fd_pr__nfet_01v8 ad=0.6156 pd=3.3 as=0 ps=0 w=1.08 l=0.18
X66 XA8.XA11.Y XA8.XA10.Y AVSS AVSS sky130_fd_pr__nfet_01v8 ad=0.378 pd=1.78 as=0.6156 ps=3.3 w=1.08 l=0.18
X67 AVSS XA5.CP0 XA5.CN0 AVSS sky130_fd_pr__nfet_01v8 ad=0.378 pd=1.78 as=0.378 ps=1.78 w=1.08 l=0.18
X68 XA3.DONE XA3.XA8.A AVSS AVSS sky130_fd_pr__nfet_01v8 ad=0.6156 pd=3.3 as=0.6156 ps=3.3 w=1.08 l=0.18
X69 VREF XA5.CP0 XA5.CN0 AVDD sky130_fd_pr__pfet_01v8 ad=0.378 pd=1.78 as=0.378 ps=1.78 w=1.08 l=0.18
X70 AVSS XA1.XA2.A XA1.CN1 AVSS sky130_fd_pr__nfet_01v8 ad=0.6156 pd=3.3 as=0.378 ps=1.78 w=1.08 l=0.18
X71 XA3.DONE XA3.XA8.A AVDD AVDD sky130_fd_pr__pfet_01v8 ad=0.6156 pd=3.3 as=0.6156 ps=3.3 w=1.08 l=0.18
X72 VREF XA1.XA2.A XA1.CN1 AVDD sky130_fd_pr__pfet_01v8 ad=0.6156 pd=3.3 as=0.378 ps=1.78 w=1.08 l=0.18
X73 XA0.DONE XA0.XA8.A AVSS AVSS sky130_fd_pr__nfet_01v8 ad=0.6156 pd=3.3 as=0.6156 ps=3.3 w=1.08 l=0.18
R10 m3_16526_2200# XB2.XA3.B sky130_fd_pr__res_generic_m3 w=0.4 l=0.36
X74 XA8.XA6.MN3.S CK_SAMPLE AVSS AVSS sky130_fd_pr__nfet_01v8 ad=0.378 pd=1.78 as=0.378 ps=1.78 w=1.08 l=0.18
X75 XA20.XA1.MP0.S XA20.XA1.CKN AVSS AVSS sky130_fd_pr__nfet_01v8 ad=0.378 pd=1.78 as=0.6156 ps=3.3 w=1.08 l=0.18
X76 XA3.CN0 XA3.CP0 AVSS AVSS sky130_fd_pr__nfet_01v8 ad=0.378 pd=1.78 as=0.6156 ps=3.3 w=1.08 l=0.18
X77 AVDD XA20.XA1.CKN XA20.XA1.MP0.S AVDD sky130_fd_pr__pfet_01v8 ad=0.378 pd=1.78 as=0.6156 ps=3.3 w=1.08 l=0.18
X78 XA4.XA11.MP1.S XA4.XA10.Y AVDD AVDD sky130_fd_pr__pfet_01v8 ad=0.378 pd=1.78 as=0.6156 ps=3.3 w=1.08 l=0.18
X79 XA0.CN0 XA0.CP0 AVSS AVSS sky130_fd_pr__nfet_01v8 ad=0.378 pd=1.78 as=0.6156 ps=3.3 w=1.08 l=0.18
X80 XA3.CN0 XA3.CP0 VREF AVDD sky130_fd_pr__pfet_01v8 ad=0.378 pd=1.78 as=0.6156 ps=3.3 w=1.08 l=0.18
X81 XA4.CEIN XA3.XA11.Y AVSS AVSS sky130_fd_pr__nfet_01v8 ad=0.6156 pd=3.3 as=0.6156 ps=3.3 w=1.08 l=0.18
X82 XA8.CP0 XA8.XA1.CHL_OP AVSS AVSS sky130_fd_pr__nfet_01v8 ad=0.378 pd=1.78 as=0.6156 ps=3.3 w=1.08 l=0.18
X83 AVSS XA7.XA2.A XA7.CN1 AVSS sky130_fd_pr__nfet_01v8 ad=0.378 pd=1.78 as=0.378 ps=1.78 w=1.08 l=0.18
R11 XDAC1.XC0.XRES8.B XA0.CP1 sky130_fd_pr__res_generic_l1 w=0.34 l=0.34
X84 XA4.CEIN XA3.XA11.Y AVDD AVDD sky130_fd_pr__pfet_01v8 ad=0.6156 pd=3.3 as=0.6156 ps=3.3 w=1.08 l=0.18
X85 VREF XA7.XA2.A XA7.CN1 AVDD sky130_fd_pr__pfet_01v8 ad=0.378 pd=1.78 as=0.378 ps=1.78 w=1.08 l=0.18
X86 XA0.CEO XA0.XA11.Y AVSS AVSS sky130_fd_pr__nfet_01v8 ad=0.6156 pd=3.3 as=0.6156 ps=3.3 w=1.08 l=0.18
X87 XA4.XA6.MP3.S D<4> AVDD AVDD sky130_fd_pr__pfet_01v8 ad=0.378 pd=1.78 as=0.378 ps=1.78 w=1.08 l=0.18
X88 XA8.XA10.Y XA8.XA10.A AVSS AVSS sky130_fd_pr__nfet_01v8 ad=0.6156 pd=3.3 as=0.6156 ps=3.3 w=1.08 l=0.18
X89 XA5.XA10.A XA5.XA6.Y XA5.XA9.MN1.S AVSS sky130_fd_pr__nfet_01v8 ad=0.6156 pd=3.3 as=0.378 ps=1.78 w=1.08 l=0.18
X90 XA1.XA1.XA1.MN2.S XA0.CMP_ON AVSS AVSS sky130_fd_pr__nfet_01v8 ad=0.6156 pd=3.3 as=0.6156 ps=3.3 w=1.08 l=0.18
X91 AVDD AVDD AVDD AVDD sky130_fd_pr__pfet_01v8 ad=0.6156 pd=3.3 as=0 ps=0 w=1.08 l=0.18
X92 AVSS AVSS AVSS AVSS sky130_fd_pr__nfet_01v8 ad=0.6156 pd=3.3 as=0 ps=0 w=1.08 l=0.18
X93 AVDD XA5.XA6.Y XA5.XA10.A AVDD sky130_fd_pr__pfet_01v8 ad=0.6156 pd=3.3 as=0.378 ps=1.78 w=1.08 l=0.18
X94 XA3.XA8.A XA4.EN AVSS AVSS sky130_fd_pr__nfet_01v8 ad=0.6156 pd=3.3 as=0.6156 ps=3.3 w=1.08 l=0.18
X95 XA1.XA1.XA1.MP2.S XA0.CMP_ON XA1.ENO AVDD sky130_fd_pr__pfet_01v8 ad=0.6156 pd=3.3 as=0.6156 ps=3.3 w=1.08 l=0.18
X96 XA8.XA2.A XA7.ENO XA8.XA1.XA5.MN2.S AVSS sky130_fd_pr__nfet_01v8 ad=0.6156 pd=3.3 as=0.378 ps=1.78 w=1.08 l=0.18
X97 XA0.XA8.A XA0.ENO AVSS AVSS sky130_fd_pr__nfet_01v8 ad=0.6156 pd=3.3 as=0.6156 ps=3.3 w=1.08 l=0.18
X98 XA3.XA8.A XA4.EN AVDD AVDD sky130_fd_pr__pfet_01v8 ad=0.6156 pd=3.3 as=0.6156 ps=3.3 w=1.08 l=0.18
X99 XA4.CP0 XA4.XA1.CHL_OP VREF AVDD sky130_fd_pr__pfet_01v8 ad=0.378 pd=1.78 as=0.6156 ps=3.3 w=1.08 l=0.18
X100 XA7.DONE XA7.XA8.A AVSS AVSS sky130_fd_pr__nfet_01v8 ad=0.6156 pd=3.3 as=0.6156 ps=3.3 w=1.08 l=0.18
X101 XA8.XA6.MN1.S CK_SAMPLE AVSS AVSS sky130_fd_pr__nfet_01v8 ad=0.378 pd=1.78 as=0.6156 ps=3.3 w=1.08 l=0.18
X102 XA0.XA1.XA5.MP2.S EN XA0.XA1.XA5.MP1.S AVDD sky130_fd_pr__pfet_01v8 ad=0.378 pd=1.78 as=0.378 ps=1.78 w=1.08 l=0.18
X103 SAR_IP XB1.CKN XB1.XA3.B AVDD sky130_fd_pr__pfet_01v8 ad=0.6156 pd=3.3 as=0.378 ps=1.78 w=1.08 l=0.18
X104 AVSS XA0.CMP_OP XA8.XA1.XA1.MN2.S AVSS sky130_fd_pr__nfet_01v8 ad=0.6156 pd=3.3 as=0.6156 ps=3.3 w=1.08 l=0.18
X105 XA7.DONE XA7.XA8.A AVDD AVDD sky130_fd_pr__pfet_01v8 ad=0.6156 pd=3.3 as=0.6156 ps=3.3 w=1.08 l=0.18
X106 AVSS XA3.XA1.CHL_OP XA3.CP0 AVSS sky130_fd_pr__nfet_01v8 ad=0.6156 pd=3.3 as=0.378 ps=1.78 w=1.08 l=0.18
X107 XA4.XA10.Y XA4.XA10.A AVDD AVDD sky130_fd_pr__pfet_01v8 ad=0.6156 pd=3.3 as=0.6156 ps=3.3 w=1.08 l=0.18
X108 AVSS XA0.XA1.CHL_OP XA0.CP0 AVSS sky130_fd_pr__nfet_01v8 ad=0.6156 pd=3.3 as=0.378 ps=1.78 w=1.08 l=0.18
X109 VREF XA3.XA1.CHL_OP XA3.CP0 AVDD sky130_fd_pr__pfet_01v8 ad=0.6156 pd=3.3 as=0.378 ps=1.78 w=1.08 l=0.18
X110 XA4.XA2.A EN XA4.XA1.XA5.MP2.S AVDD sky130_fd_pr__pfet_01v8 ad=0.6156 pd=3.3 as=0.378 ps=1.78 w=1.08 l=0.18
X111 AVSS XA8.CN1 D<0> AVSS sky130_fd_pr__nfet_01v8 ad=0.6156 pd=3.3 as=0.378 ps=1.78 w=1.08 l=0.18
R12 XDAC1.XC64a<0>.XRES2.B XA1.CP0 sky130_fd_pr__res_generic_l1 w=0.34 l=0.34
X112 XA7.CN0 XA7.CP0 AVSS AVSS sky130_fd_pr__nfet_01v8 ad=0.378 pd=1.78 as=0.6156 ps=3.3 w=1.08 l=0.18
X113 XA2.XA1.CHL_OP EN XA2.XA1.XA4.MP2.S AVDD sky130_fd_pr__pfet_01v8 ad=0.6156 pd=3.3 as=0.378 ps=1.78 w=1.08 l=0.18
X114 AVSS XA4.CEIN XA4.XA11.Y AVSS sky130_fd_pr__nfet_01v8 ad=0.6156 pd=3.3 as=0.378 ps=1.78 w=1.08 l=0.18
X115 XA4.XA6.MP1.S XA4.CN0 XA4.XA6.Y AVDD sky130_fd_pr__pfet_01v8 ad=0.378 pd=1.78 as=0.6156 ps=3.3 w=1.08 l=0.18
X116 XA7.CN0 XA7.CP0 VREF AVDD sky130_fd_pr__pfet_01v8 ad=0.378 pd=1.78 as=0.6156 ps=3.3 w=1.08 l=0.18
X117 XA6.XA10.A XA6.XA8.A AVDD AVDD sky130_fd_pr__pfet_01v8 ad=0.378 pd=1.78 as=0.6156 ps=3.3 w=1.08 l=0.18
R13 XA0.CN0 XDAC2.XC128b<2>.XRES8.B sky130_fd_pr__res_generic_l1 w=0.34 l=0.34
X118 AVDD AVDD AVDD AVDD sky130_fd_pr__pfet_01v8 ad=0.6156 pd=3.3 as=0 ps=0 w=1.08 l=0.18
X119 XA4.XA1.XA1.MP3.S XA0.CMP_OP XA4.XA1.XA1.MP2.S AVDD sky130_fd_pr__pfet_01v8 ad=0.6156 pd=3.3 as=0.6156 ps=3.3 w=1.08 l=0.18
X120 XA7.CEO XA7.XA11.Y AVSS AVSS sky130_fd_pr__nfet_01v8 ad=0.6156 pd=3.3 as=0.6156 ps=3.3 w=1.08 l=0.18
X121 XA1.XA1.XA1.MN2.S XA0.ENO XA1.XA1.XA1.MP3.G AVSS sky130_fd_pr__nfet_01v8 ad=0.6156 pd=3.3 as=0.6156 ps=3.3 w=1.08 l=0.18
X122 XA8.XA1.XA5.MN1.S XA0.CMP_ON AVSS AVSS sky130_fd_pr__nfet_01v8 ad=0.378 pd=1.78 as=0.6156 ps=3.3 w=1.08 l=0.18
X123 XA7.CEO XA7.XA11.Y AVDD AVDD sky130_fd_pr__pfet_01v8 ad=0.6156 pd=3.3 as=0.6156 ps=3.3 w=1.08 l=0.18
X124 XA20.XA1.CK XA20.XA1.CKN AVSS AVSS sky130_fd_pr__nfet_01v8 ad=0.6156 pd=3.3 as=0.6156 ps=3.3 w=1.08 l=0.18
X125 SAR_IP XB1.M1.G SARP AVSS sky130_fd_pr__nfet_01v8 ad=0.6156 pd=3.3 as=0.6156 ps=3.3 w=1.08 l=0.18
X126 AVDD EN XA1.XA1.XA1.MP3.G AVDD sky130_fd_pr__pfet_01v8 ad=0.6156 pd=3.3 as=0.6156 ps=3.3 w=1.08 l=0.18
X127 XA20.XA1.CK XA20.XA1.CKN AVDD AVDD sky130_fd_pr__pfet_01v8 ad=0.6156 pd=3.3 as=0.6156 ps=3.3 w=1.08 l=0.18
X128 XA4.XA6.Y CK_SAMPLE XA4.XA6.MN3.S AVSS sky130_fd_pr__nfet_01v8 ad=0.6156 pd=3.3 as=0.378 ps=1.78 w=1.08 l=0.18
X129 VREF XA4.CN1 D<4> AVDD sky130_fd_pr__pfet_01v8 ad=0.6156 pd=3.3 as=0.378 ps=1.78 w=1.08 l=0.18
X130 XA6.CN0 XA6.CP0 VREF AVDD sky130_fd_pr__pfet_01v8 ad=0.378 pd=1.78 as=0.378 ps=1.78 w=1.08 l=0.18
X131 XA7.XA8.A XA7.ENO AVSS AVSS sky130_fd_pr__nfet_01v8 ad=0.6156 pd=3.3 as=0.6156 ps=3.3 w=1.08 l=0.18
R14 XDAC1.X16ab.XRES4.B D<5> sky130_fd_pr__res_generic_l1 w=0.34 l=0.34
R15 XDAC1.XC64b<1>.XRES4.B D<7> sky130_fd_pr__res_generic_l1 w=0.34 l=0.34
X132 XA7.XA8.A XA7.ENO AVDD AVDD sky130_fd_pr__pfet_01v8 ad=0.6156 pd=3.3 as=0.6156 ps=3.3 w=1.08 l=0.18
X133 XA20.XA2.N1 SARN XA20.XA3.N2 AVSS sky130_fd_pr__nfet_01v8 ad=0.378 pd=1.78 as=0.378 ps=1.78 w=1.08 l=0.18
X134 AVSS AVSS AVSS AVSS sky130_fd_pr__nfet_01v8 ad=0.6156 pd=3.3 as=0 ps=0 w=1.08 l=0.18
X135 AVSS XA4.XA1.CHL_OP XA4.CP0 AVSS sky130_fd_pr__nfet_01v8 ad=0.378 pd=1.78 as=0.378 ps=1.78 w=1.08 l=0.18
X136 AVDD XA20.XA2.CO XA20.XA2.VMR AVDD sky130_fd_pr__pfet_01v8 ad=0.378 pd=1.78 as=0.378 ps=1.78 w=1.08 l=0.18
X137 XA4.XA1.XA5.MP1.S EN AVDD AVDD sky130_fd_pr__pfet_01v8 ad=0.378 pd=1.78 as=0.6156 ps=3.3 w=1.08 l=0.18
X138 D<2> XA6.CN1 VREF AVDD sky130_fd_pr__pfet_01v8 ad=0.378 pd=1.78 as=0.6156 ps=3.3 w=1.08 l=0.18
X139 AVSS AVSS AVSS AVSS sky130_fd_pr__nfet_01v8 ad=0.6156 pd=3.3 as=0 ps=0 w=1.08 l=0.18
X140 AVSS XA7.XA1.CHL_OP XA7.CP0 AVSS sky130_fd_pr__nfet_01v8 ad=0.6156 pd=3.3 as=0.378 ps=1.78 w=1.08 l=0.18
R16 XDAC1.XC0.XRES1A.B XA0.CP1 sky130_fd_pr__res_generic_l1 w=0.34 l=0.34
X141 XA2.XA1.XA4.MP1.S EN AVDD AVDD sky130_fd_pr__pfet_01v8 ad=0.378 pd=1.78 as=0.6156 ps=3.3 w=1.08 l=0.18
X142 VREF XA7.XA1.CHL_OP XA7.CP0 AVDD sky130_fd_pr__pfet_01v8 ad=0.6156 pd=3.3 as=0.378 ps=1.78 w=1.08 l=0.18
X143 XA0.CMP_OP XA20.XA2.VMR AVSS AVSS sky130_fd_pr__nfet_01v8 ad=0.378 pd=1.78 as=0.378 ps=1.78 w=1.08 l=0.18
X144 XA0.CMP_OP XA20.XA2.VMR AVDD AVDD sky130_fd_pr__pfet_01v8 ad=0.378 pd=1.78 as=0.378 ps=1.78 w=1.08 l=0.18
X145 XB2.XA1.Y XB2.XA1.MP0.G AVDD AVDD sky130_fd_pr__pfet_01v8 ad=0.6156 pd=3.3 as=0.6156 ps=3.3 w=1.08 l=0.18
X146 XA6.XA1.XA4.MP2.S EN XA6.XA1.XA4.MP1.S AVDD sky130_fd_pr__pfet_01v8 ad=0.378 pd=1.78 as=0.378 ps=1.78 w=1.08 l=0.18
X147 XA2.XA9.MN1.S XA2.XA8.A AVSS AVSS sky130_fd_pr__nfet_01v8 ad=0.378 pd=1.78 as=0.6156 ps=3.3 w=1.08 l=0.18
X148 SAR_IN XB1.TIE_L SARP AVSS sky130_fd_pr__nfet_01v8 ad=0.6156 pd=3.3 as=0.6156 ps=3.3 w=1.08 l=0.18
X149 AVSS CK_SAMPLE XA4.XA6.MN1.S AVSS sky130_fd_pr__nfet_01v8 ad=0.378 pd=1.78 as=0.378 ps=1.78 w=1.08 l=0.18
X150 AVDD XA20.XA1.CK XA20.XA1.MP0.S AVSS sky130_fd_pr__nfet_01v8 ad=0.6156 pd=3.3 as=0.378 ps=1.78 w=1.08 l=0.18
X151 AVDD AVDD AVDD AVDD sky130_fd_pr__pfet_01v8 ad=0.6156 pd=3.3 as=0 ps=0 w=1.08 l=0.18
X152 XA2.CN0 XA2.CP0 AVSS AVSS sky130_fd_pr__nfet_01v8 ad=0.378 pd=1.78 as=0.378 ps=1.78 w=1.08 l=0.18
X153 XB2.XA1.MP0.G XB2.XA1.MP0.G AVSS AVSS sky130_fd_pr__nfet_01v8 ad=0.6156 pd=3.3 as=0.6156 ps=3.3 w=1.08 l=0.18
X154 AVSS XA6.CP0 XA6.CN0 AVSS sky130_fd_pr__nfet_01v8 ad=0.6156 pd=3.3 as=0.378 ps=1.78 w=1.08 l=0.18
X155 VREF XA6.XA2.A XA6.CN1 AVDD sky130_fd_pr__pfet_01v8 ad=0.6156 pd=3.3 as=0.378 ps=1.78 w=1.08 l=0.18
X156 D<6> XA2.CN1 AVSS AVSS sky130_fd_pr__nfet_01v8 ad=0.378 pd=1.78 as=0.6156 ps=3.3 w=1.08 l=0.18
X157 AVSS AVSS AVSS AVSS sky130_fd_pr__nfet_01v8 ad=0.6156 pd=3.3 as=0 ps=0 w=1.08 l=0.18
X158 AVDD AVDD AVDD AVDD sky130_fd_pr__pfet_01v8 ad=0.6156 pd=3.3 as=0 ps=0 w=1.08 l=0.18
X159 XA20.XA2.VMR XA20.XA2.CO XA20.XA3.N2 AVSS sky130_fd_pr__nfet_01v8 ad=0.6156 pd=3.3 as=0.378 ps=1.78 w=1.08 l=0.18
R17 XB2.XA4.GNG m3_23222_3960# sky130_fd_pr__res_generic_m3 w=0.4 l=0.36
X160 AVSS AVSS AVSS AVSS sky130_fd_pr__nfet_01v8 ad=0.6156 pd=3.3 as=0 ps=0 w=1.08 l=0.18
X161 AVDD XA20.XA2.CO XA20.XA2.VMR AVDD sky130_fd_pr__pfet_01v8 ad=0.6156 pd=3.3 as=0.378 ps=1.78 w=1.08 l=0.18
X162 AVSS XA6.CN1 D<2> AVSS sky130_fd_pr__nfet_01v8 ad=0.378 pd=1.78 as=0.378 ps=1.78 w=1.08 l=0.18
R18 XDAC1.XC128b<2>.XRES1A.B XA0.CP0 sky130_fd_pr__res_generic_l1 w=0.34 l=0.34
R19 XB1.XA3.B m3_7598_4120# sky130_fd_pr__res_generic_m3 w=0.4 l=0.36
X163 AVSS AVSS AVSS AVSS sky130_fd_pr__nfet_01v8 ad=0.6156 pd=3.3 as=0 ps=0 w=1.08 l=0.18
X164 SAR_IN XB1.TIE_L SARP AVSS sky130_fd_pr__nfet_01v8 ad=0.6156 pd=3.3 as=0.6156 ps=3.3 w=1.08 l=0.18
X165 XA8.XA1.CHL_OP EN XA8.XA1.XA4.MP2.S AVDD sky130_fd_pr__pfet_01v8 ad=0.6156 pd=3.3 as=0.378 ps=1.78 w=1.08 l=0.18
X166 XA2.XA1.XA4.MN2.S XA2.XA1.XA4.LCK_N XA2.XA1.XA4.MN1.S AVSS sky130_fd_pr__nfet_01v8 ad=0.378 pd=1.78 as=0.378 ps=1.78 w=1.08 l=0.18
X167 XA1.CP0 XA1.XA1.CHL_OP AVSS AVSS sky130_fd_pr__nfet_01v8 ad=0.378 pd=1.78 as=0.378 ps=1.78 w=1.08 l=0.18
X168 XA1.CP0 XA1.XA1.CHL_OP VREF AVDD sky130_fd_pr__pfet_01v8 ad=0.378 pd=1.78 as=0.378 ps=1.78 w=1.08 l=0.18
X169 XA1.CN1 XA1.XA2.A AVSS AVSS sky130_fd_pr__nfet_01v8 ad=0.378 pd=1.78 as=0.6156 ps=3.3 w=1.08 l=0.18
X170 XA6.XA1.XA1.MP2.S XA0.CMP_ON XA6.ENO AVDD sky130_fd_pr__pfet_01v8 ad=0.6156 pd=3.3 as=0.6156 ps=3.3 w=1.08 l=0.18
X171 AVSS XA6.CP0 XA6.CN0 AVSS sky130_fd_pr__nfet_01v8 ad=0.378 pd=1.78 as=0.378 ps=1.78 w=1.08 l=0.18
X172 XA1.CN1 XA1.XA2.A VREF AVDD sky130_fd_pr__pfet_01v8 ad=0.378 pd=1.78 as=0.6156 ps=3.3 w=1.08 l=0.18
X173 XA20.XA2.N1 XA20.XA1.CK AVSS AVSS sky130_fd_pr__nfet_01v8 ad=0.378 pd=1.78 as=0.6156 ps=3.3 w=1.08 l=0.18
X174 AVDD XA20.XA1.CK XA20.XA2.N1 AVDD sky130_fd_pr__pfet_01v8 ad=0.378 pd=1.78 as=0.6156 ps=3.3 w=1.08 l=0.18
X175 AVSS XA2.XA2.A XA2.CN1 AVSS sky130_fd_pr__nfet_01v8 ad=0.6156 pd=3.3 as=0.378 ps=1.78 w=1.08 l=0.18
X176 AVSS XA5.XA2.A XA5.CN1 AVSS sky130_fd_pr__nfet_01v8 ad=0.378 pd=1.78 as=0.378 ps=1.78 w=1.08 l=0.18
X177 SAR_IP XB1.M1.G SARP AVSS sky130_fd_pr__nfet_01v8 ad=0.6156 pd=3.3 as=0.6156 ps=3.3 w=1.08 l=0.18
X178 VREF XA5.XA2.A XA5.CN1 AVDD sky130_fd_pr__pfet_01v8 ad=0.378 pd=1.78 as=0.378 ps=1.78 w=1.08 l=0.18
X179 XA1.ENO XA1.XA1.XA1.MP3.G AVSS AVSS sky130_fd_pr__nfet_01v8 ad=0.6156 pd=3.3 as=0.6156 ps=3.3 w=1.08 l=0.18
X180 AVDD XA1.XA1.XA1.MP3.G XA1.XA1.XA1.MP3.S AVDD sky130_fd_pr__pfet_01v8 ad=0.6156 pd=3.3 as=0.6156 ps=3.3 w=1.08 l=0.18
X181 AVSS AVSS AVSS AVSS sky130_fd_pr__nfet_01v8 ad=0.6156 pd=3.3 as=0 ps=0 w=1.08 l=0.18
X182 XA3.XA11.Y XA3.XA10.Y AVSS AVSS sky130_fd_pr__nfet_01v8 ad=0.378 pd=1.78 as=0.6156 ps=3.3 w=1.08 l=0.18
X183 AVSS AVSS AVSS AVSS sky130_fd_pr__nfet_01v8 ad=0.6156 pd=3.3 as=0 ps=0 w=1.08 l=0.18
X184 AVDD AVDD AVDD AVDD sky130_fd_pr__pfet_01v8 ad=0.6156 pd=3.3 as=0 ps=0 w=1.08 l=0.18
X185 XA8.XA1.XA4.MP1.S EN AVDD AVDD sky130_fd_pr__pfet_01v8 ad=0.378 pd=1.78 as=0.6156 ps=3.3 w=1.08 l=0.18
X186 AVDD AVDD AVDD AVDD sky130_fd_pr__pfet_01v8 ad=0.6156 pd=3.3 as=0 ps=0 w=1.08 l=0.18
X187 XA3.XA11.MP1.S XA3.XA10.Y AVDD AVDD sky130_fd_pr__pfet_01v8 ad=0.378 pd=1.78 as=0.6156 ps=3.3 w=1.08 l=0.18
X188 XA0.XA11.Y XA0.XA10.Y AVSS AVSS sky130_fd_pr__nfet_01v8 ad=0.378 pd=1.78 as=0.6156 ps=3.3 w=1.08 l=0.18
X189 XA8.XA9.MN1.S XA8.XA8.A AVSS AVSS sky130_fd_pr__nfet_01v8 ad=0.378 pd=1.78 as=0.6156 ps=3.3 w=1.08 l=0.18
X190 XA5.DONE XA5.XA8.A AVSS AVSS sky130_fd_pr__nfet_01v8 ad=0.6156 pd=3.3 as=0.6156 ps=3.3 w=1.08 l=0.18
X191 XA5.DONE XA5.XA8.A AVDD AVDD sky130_fd_pr__pfet_01v8 ad=0.6156 pd=3.3 as=0.6156 ps=3.3 w=1.08 l=0.18
X192 XA3.XA6.MN3.S CK_SAMPLE AVSS AVSS sky130_fd_pr__nfet_01v8 ad=0.378 pd=1.78 as=0.378 ps=1.78 w=1.08 l=0.18
X193 XA3.XA6.MP3.S D<5> AVDD AVDD sky130_fd_pr__pfet_01v8 ad=0.378 pd=1.78 as=0.378 ps=1.78 w=1.08 l=0.18
X194 AVDD EN XA6.XA1.XA1.MP3.G AVDD sky130_fd_pr__pfet_01v8 ad=0.6156 pd=3.3 as=0.6156 ps=3.3 w=1.08 l=0.18
X195 XA6.XA10.A XA6.XA6.Y XA6.XA9.MN1.S AVSS sky130_fd_pr__nfet_01v8 ad=0.6156 pd=3.3 as=0.378 ps=1.78 w=1.08 l=0.18
X196 XA0.XA6.MN3.S CK_SAMPLE AVSS AVSS sky130_fd_pr__nfet_01v8 ad=0.378 pd=1.78 as=0.378 ps=1.78 w=1.08 l=0.18
X197 XA2.XA1.XA1.MN2.S XA0.CMP_ON AVSS AVSS sky130_fd_pr__nfet_01v8 ad=0.6156 pd=3.3 as=0.6156 ps=3.3 w=1.08 l=0.18
X198 XA5.CN0 XA5.CP0 AVSS AVSS sky130_fd_pr__nfet_01v8 ad=0.378 pd=1.78 as=0.6156 ps=3.3 w=1.08 l=0.18
X199 XA8.CN0 XA8.CP0 AVSS AVSS sky130_fd_pr__nfet_01v8 ad=0.378 pd=1.78 as=0.378 ps=1.78 w=1.08 l=0.18
R20 m3_16526_280# XB2.XA3.B sky130_fd_pr__res_generic_m3 w=0.4 l=0.36
X200 XA0.XA1.CHL_OP EN XA0.XA1.XA4.MP2.S AVDD sky130_fd_pr__pfet_01v8 ad=0.6156 pd=3.3 as=0.378 ps=1.78 w=1.08 l=0.18
X201 XA5.CN0 XA5.CP0 VREF AVDD sky130_fd_pr__pfet_01v8 ad=0.378 pd=1.78 as=0.6156 ps=3.3 w=1.08 l=0.18
X202 XA3.CP0 XA3.XA1.CHL_OP AVSS AVSS sky130_fd_pr__nfet_01v8 ad=0.378 pd=1.78 as=0.6156 ps=3.3 w=1.08 l=0.18
X203 XA1.CN1 XA1.XA2.A AVSS AVSS sky130_fd_pr__nfet_01v8 ad=0.378 pd=1.78 as=0.378 ps=1.78 w=1.08 l=0.18
X204 XA4.XA10.A XA4.XA8.A AVDD AVDD sky130_fd_pr__pfet_01v8 ad=0.378 pd=1.78 as=0.6156 ps=3.3 w=1.08 l=0.18
X205 XA3.CP0 XA3.XA1.CHL_OP VREF AVDD sky130_fd_pr__pfet_01v8 ad=0.378 pd=1.78 as=0.6156 ps=3.3 w=1.08 l=0.18
X206 XA1.CN1 XA1.XA2.A VREF AVDD sky130_fd_pr__pfet_01v8 ad=0.378 pd=1.78 as=0.378 ps=1.78 w=1.08 l=0.18
X207 XA5.CEO XA5.XA11.Y AVSS AVSS sky130_fd_pr__nfet_01v8 ad=0.6156 pd=3.3 as=0.6156 ps=3.3 w=1.08 l=0.18
X208 XA0.CP0 XA0.XA1.CHL_OP AVSS AVSS sky130_fd_pr__nfet_01v8 ad=0.378 pd=1.78 as=0.6156 ps=3.3 w=1.08 l=0.18
R21 D<8> XDAC2.XC128a<1>.XRES4.B sky130_fd_pr__res_generic_l1 w=0.34 l=0.34
R22 XA5.CN0 XDAC2.XC32a<0>.XRES4.B sky130_fd_pr__res_generic_l1 w=0.34 l=0.34
X209 XA5.CEO XA5.XA11.Y AVDD AVDD sky130_fd_pr__pfet_01v8 ad=0.6156 pd=3.3 as=0.6156 ps=3.3 w=1.08 l=0.18
X210 XA3.XA10.Y XA3.XA10.A AVSS AVSS sky130_fd_pr__nfet_01v8 ad=0.6156 pd=3.3 as=0.6156 ps=3.3 w=1.08 l=0.18
X211 D<0> XA8.CN1 AVSS AVSS sky130_fd_pr__nfet_01v8 ad=0.378 pd=1.78 as=0.6156 ps=3.3 w=1.08 l=0.18
X212 XA3.XA10.Y XA3.XA10.A AVDD AVDD sky130_fd_pr__pfet_01v8 ad=0.6156 pd=3.3 as=0.6156 ps=3.3 w=1.08 l=0.18
X213 XA3.XA2.A XA2.ENO XA3.XA1.XA5.MN2.S AVSS sky130_fd_pr__nfet_01v8 ad=0.6156 pd=3.3 as=0.378 ps=1.78 w=1.08 l=0.18
X214 XA1.XA1.XA4.LCK_N XA1.ENO AVSS AVSS sky130_fd_pr__nfet_01v8 ad=0.6156 pd=3.3 as=0.6156 ps=3.3 w=1.08 l=0.18
X215 XA0.XA10.Y XA0.XA10.A AVSS AVSS sky130_fd_pr__nfet_01v8 ad=0.6156 pd=3.3 as=0.6156 ps=3.3 w=1.08 l=0.18
X216 XA4.CN0 XA4.CP0 VREF AVDD sky130_fd_pr__pfet_01v8 ad=0.378 pd=1.78 as=0.378 ps=1.78 w=1.08 l=0.18
X217 XA0.XA2.A EN XA0.XA1.XA5.MN2.S AVSS sky130_fd_pr__nfet_01v8 ad=0.6156 pd=3.3 as=0.378 ps=1.78 w=1.08 l=0.18
X218 XA3.XA2.A EN XA3.XA1.XA5.MP2.S AVDD sky130_fd_pr__pfet_01v8 ad=0.6156 pd=3.3 as=0.378 ps=1.78 w=1.08 l=0.18
R23 XA3.CN1 XDAC2.X16ab.XRES1B.B sky130_fd_pr__res_generic_l1 w=0.34 l=0.34
X219 XA1.XA1.XA4.LCK_N XA1.ENO AVDD AVDD sky130_fd_pr__pfet_01v8 ad=0.6156 pd=3.3 as=0.6156 ps=3.3 w=1.08 l=0.18
X220 XA5.XA8.A XA5.ENO AVSS AVSS sky130_fd_pr__nfet_01v8 ad=0.6156 pd=3.3 as=0.6156 ps=3.3 w=1.08 l=0.18
X221 AVDD AVDD AVDD AVDD sky130_fd_pr__pfet_01v8 ad=0.6156 pd=3.3 as=0 ps=0 w=1.08 l=0.18
X222 XA7.XA11.Y XA7.XA10.Y AVSS AVSS sky130_fd_pr__nfet_01v8 ad=0.378 pd=1.78 as=0.6156 ps=3.3 w=1.08 l=0.18
X223 XA5.XA8.A XA5.ENO AVDD AVDD sky130_fd_pr__pfet_01v8 ad=0.6156 pd=3.3 as=0.6156 ps=3.3 w=1.08 l=0.18
X224 XA3.XA6.MN1.S CK_SAMPLE AVSS AVSS sky130_fd_pr__nfet_01v8 ad=0.378 pd=1.78 as=0.6156 ps=3.3 w=1.08 l=0.18
X225 XA8.XA1.XA4.MN2.S XA8.XA1.XA4.LCK_N XA8.XA1.XA4.MN1.S AVSS sky130_fd_pr__nfet_01v8 ad=0.378 pd=1.78 as=0.378 ps=1.78 w=1.08 l=0.18
X226 XA7.XA11.MP1.S XA7.XA10.Y AVDD AVDD sky130_fd_pr__pfet_01v8 ad=0.378 pd=1.78 as=0.6156 ps=3.3 w=1.08 l=0.18
X227 XA0.XA6.MN1.S CK_SAMPLE AVSS AVSS sky130_fd_pr__nfet_01v8 ad=0.378 pd=1.78 as=0.6156 ps=3.3 w=1.08 l=0.18
X228 XA3.XA6.MP1.S XA3.CN0 XA3.XA6.Y AVDD sky130_fd_pr__pfet_01v8 ad=0.378 pd=1.78 as=0.6156 ps=3.3 w=1.08 l=0.18
R24 XA1.CN1 XDAC2.XC64b<1>.XRES16.B sky130_fd_pr__res_generic_l1 w=0.34 l=0.34
X229 AVSS XA0.CMP_OP XA3.XA1.XA1.MN2.S AVSS sky130_fd_pr__nfet_01v8 ad=0.6156 pd=3.3 as=0.6156 ps=3.3 w=1.08 l=0.18
X230 D<4> XA4.CN1 VREF AVDD sky130_fd_pr__pfet_01v8 ad=0.378 pd=1.78 as=0.6156 ps=3.3 w=1.08 l=0.18
X231 XA2.XA1.XA1.MN2.S XA1.ENO XA2.XA1.XA1.MP3.G AVSS sky130_fd_pr__nfet_01v8 ad=0.6156 pd=3.3 as=0.6156 ps=3.3 w=1.08 l=0.18
X232 XA3.XA1.XA1.MP3.S XA0.CMP_OP XA3.XA1.XA1.MP2.S AVDD sky130_fd_pr__pfet_01v8 ad=0.6156 pd=3.3 as=0.6156 ps=3.3 w=1.08 l=0.18
X233 AVSS XA0.CMP_OP XA0.XA1.XA1.MN2.S AVSS sky130_fd_pr__nfet_01v8 ad=0.6156 pd=3.3 as=0.6156 ps=3.3 w=1.08 l=0.18
X234 XA7.XA6.MN3.S CK_SAMPLE AVSS AVSS sky130_fd_pr__nfet_01v8 ad=0.378 pd=1.78 as=0.378 ps=1.78 w=1.08 l=0.18
X235 AVSS XA5.XA1.CHL_OP XA5.CP0 AVSS sky130_fd_pr__nfet_01v8 ad=0.6156 pd=3.3 as=0.378 ps=1.78 w=1.08 l=0.18
X236 SAR_IN XB2.M1.G SARN AVSS sky130_fd_pr__nfet_01v8 ad=0.6156 pd=3.3 as=0.6156 ps=3.3 w=1.08 l=0.18
X237 XA0.XA1.XA4.MP1.S EN AVDD AVDD sky130_fd_pr__pfet_01v8 ad=0.378 pd=1.78 as=0.6156 ps=3.3 w=1.08 l=0.18
X238 XA7.XA6.MP3.S D<1> AVDD AVDD sky130_fd_pr__pfet_01v8 ad=0.378 pd=1.78 as=0.378 ps=1.78 w=1.08 l=0.18
X239 VREF XA5.XA1.CHL_OP XA5.CP0 AVDD sky130_fd_pr__pfet_01v8 ad=0.6156 pd=3.3 as=0.378 ps=1.78 w=1.08 l=0.18
X240 AVSS XA3.CN1 D<5> AVSS sky130_fd_pr__nfet_01v8 ad=0.6156 pd=3.3 as=0.378 ps=1.78 w=1.08 l=0.18
X241 AVSS D<8> XA0.CP1 AVSS sky130_fd_pr__nfet_01v8 ad=0.6156 pd=3.3 as=0.378 ps=1.78 w=1.08 l=0.18
X242 VREF XA3.CN1 D<5> AVDD sky130_fd_pr__pfet_01v8 ad=0.6156 pd=3.3 as=0.378 ps=1.78 w=1.08 l=0.18
X243 XA4.XA1.XA4.MP2.S EN XA4.XA1.XA4.MP1.S AVDD sky130_fd_pr__pfet_01v8 ad=0.378 pd=1.78 as=0.378 ps=1.78 w=1.08 l=0.18
X244 AVSS XA8.XA2.A XA8.CN1 AVSS sky130_fd_pr__nfet_01v8 ad=0.6156 pd=3.3 as=0.378 ps=1.78 w=1.08 l=0.18
X245 XA7.CP0 XA7.XA1.CHL_OP AVSS AVSS sky130_fd_pr__nfet_01v8 ad=0.378 pd=1.78 as=0.6156 ps=3.3 w=1.08 l=0.18
X246 XA7.CP0 XA7.XA1.CHL_OP VREF AVDD sky130_fd_pr__pfet_01v8 ad=0.378 pd=1.78 as=0.6156 ps=3.3 w=1.08 l=0.18
X247 XA3.XA1.XA5.MN1.S XA0.CMP_ON AVSS AVSS sky130_fd_pr__nfet_01v8 ad=0.378 pd=1.78 as=0.6156 ps=3.3 w=1.08 l=0.18
X248 XA0.XA1.XA5.MN1.S XA0.CMP_ON AVSS AVSS sky130_fd_pr__nfet_01v8 ad=0.378 pd=1.78 as=0.6156 ps=3.3 w=1.08 l=0.18
X249 XA3.XA1.XA5.MP1.S EN AVDD AVDD sky130_fd_pr__pfet_01v8 ad=0.378 pd=1.78 as=0.6156 ps=3.3 w=1.08 l=0.18
R25 XA0.CN0 XDAC2.XC1.XRES1A.B sky130_fd_pr__res_generic_l1 w=0.34 l=0.34
R26 D<8> XDAC2.XC0.XRES1B.B sky130_fd_pr__res_generic_l1 w=0.34 l=0.34
X250 XB2.XA4.GNG XB2.CKN XB2.M1.G AVDD sky130_fd_pr__pfet_01v8 ad=0.378 pd=1.78 as=0.6156 ps=3.3 w=1.08 l=0.18
X251 XA7.XA10.Y XA7.XA10.A AVSS AVSS sky130_fd_pr__nfet_01v8 ad=0.6156 pd=3.3 as=0.6156 ps=3.3 w=1.08 l=0.18
X252 XB1.XA1.Y XB1.XA1.MP0.G AVDD AVDD sky130_fd_pr__pfet_01v8 ad=0.6156 pd=3.3 as=0.6156 ps=3.3 w=1.08 l=0.18
X253 XA7.XA10.Y XA7.XA10.A AVDD AVDD sky130_fd_pr__pfet_01v8 ad=0.6156 pd=3.3 as=0.6156 ps=3.3 w=1.08 l=0.18
X254 XA7.XA2.A XA6.ENO XA7.XA1.XA5.MN2.S AVSS sky130_fd_pr__nfet_01v8 ad=0.6156 pd=3.3 as=0.378 ps=1.78 w=1.08 l=0.18
X255 AVSS XA4.CP0 XA4.CN0 AVSS sky130_fd_pr__nfet_01v8 ad=0.6156 pd=3.3 as=0.378 ps=1.78 w=1.08 l=0.18